; Filename: Networks/BWFLnet_modified.inp
; WNTR: 0.4.2
; Created: 2024-04-18 01:53:53
[TITLE]

[JUNCTIONS]
;ID                      Elevation       Demand Pattern                 
 node_0070                  14.934464               0                            ;
 node_0071                  83.076583               0                            ;
 node_0107                  25.219164               0                            ;
 node_0116                  25.299657               0                            ;
 node_0133                  82.522552               0                            ;
 node_0154                  28.121197               0                            ;
 node_0159                  40.214785         0.00441 DMA2_upper1                ;
 node_0160                  15.917638               0                            ;
 node_0168                  27.461259               0                            ;
 node_0173                  30.089888         0.01323 DMA2_upper1                ;
 node_0183                  77.674321         0.00441 DMA2_upper1                ;
 node_0210                  77.513405               0                            ;
 node_0246                  71.562474               0                            ;
 node_0307                  72.396093         0.03528 DMA2_upper1                ;
 node_0328                  61.146522               0                            ;
 node_0334                  73.180132               0                            ;
 node_0348                   66.05854               0                            ;
 node_0388                  72.093517         0.01764 DMA2_upper1                ;
 node_0404                  66.237974               0                            ;
 node_0468                     73.449               0                            ;
 node_0469                     73.449               0                            ;
 node_0470                  73.019996               0                            ;
 node_0593                  40.855083               0                            ;
 node_0600                  52.945876               0                            ;
 node_0608                  53.021005               0                            ;
 node_0618                  53.047933         0.01323 DMA2_upper1                ;
 node_0640                  42.317869        0.013565 DMA2_lower2                ;
 node_0660                  53.731352               0                            ;
 node_0663                  53.732958               0                            ;
 node_0666                   53.73146               0                            ;
 node_0667                  53.776299               0                            ;
 node_0668                  53.789872               0                            ;
 node_0676                  53.803288         0.00441 DMA2_upper1                ;
 node_0679                  53.843655               0                            ;
 node_0683                     54.761               0                            ;
 node_0684                     54.761               0                            ;
 node_0712                  42.562841         0.02205 DMA2_upper1                ;
 node_0747                  44.442866          0.0441 DMA2_upper1                ;
 node_0766                  55.102091               0                            ;
 node_0771                  42.995102         0.01764 DMA2_upper1                ;
 node_0785                      44.33        0.070559 DMA2_upper1                ;
 node_0814                  43.859012         0.00882 DMA2_upper1                ;
 node_0836                     58.371               0                            ;
 node_0837                     58.371               0                            ;
 node_0869                   45.48233               0                            ;
 node_0951                  62.486626               0                            ;
 node_1078                  65.840502        0.007926 DMA1_upper1                ;
 node_1091                  65.907461               0                            ;
 node_1137                  59.094566         0.01323 DMA2_upper1                ;
 node_1171                  60.042555         0.00882 DMA2_upper1                ;
 node_1217                  55.069599               0                            ;
 node_1232                  69.427428               0                            ;
 node_1234                  69.538684               0                            ;
 node_1252                  60.451687         0.03087 DMA2_upper1                ;
 node_1297                  61.115099         0.01764 DMA2_upper1                ;
 node_1304                  67.807691        0.023779 DMA1_upper1                ;
 node_1340                  57.210353         0.01323 DMA2_upper1                ;
 node_1342                  59.385127         0.00882 DMA2_upper1                ;
 node_1360                  60.844791         0.00882 DMA2_upper1                ;
 node_1368                  72.319557        0.015853 DMA1_upper1                ;
 node_1371                  59.253145         0.04851 DMA2_upper1                ;
 node_1382                  72.513228        0.027742 DMA1_upper1                ;
 node_1393                  61.946088         0.02205 DMA2_upper1                ;
 node_1404                  63.699641               0                            ;
 node_1420                      63.61               0                            ;
 node_1421                      63.61               0                            ;
 node_1457                  60.300601         0.02205 DMA2_upper1                ;
 node_1475                  75.306778        0.011889 DMA1_upper1                ;
 node_1480                  59.789844         0.03087 DMA2_upper1                ;
 node_1492                  65.776894               0                            ;
 node_1522                   56.25276         0.01323 DMA2_upper1                ;
 node_1559                  75.935183        0.015853 DMA1_upper1                ;
 node_1565                   75.84252        0.043595 DMA1_upper1                ;
 node_1575                  75.994044               0                            ;
 node_1582                  70.260123        0.027742 DMA1_upper1                ;
 node_1584                   76.86781               0                            ;
 node_1589                  76.917749               0                            ;
 node_1592                  76.922301               0                            ;
 node_1595                  76.974071        0.019816 DMA1_upper1                ;
 node_1596                  76.947451               0                            ;
 node_1602                  77.007042               0                            ;
 node_1606                  77.005346               0                            ;
 node_1609                  77.024403               0                            ;
 node_1615                  76.965734        0.007926 DMA1_upper1                ;
 node_1617                  77.034767        0.007926 DMA1_upper1                ;
 node_1661                  72.589952        0.007926 DMA1_upper1                ;
 node_1697                  81.443804        0.043595 DMA1_upper1                ;
 node_1711                  81.153169               0                            ;
 node_1718                  81.379693        0.007926 DMA1_upper1                ;
 node_1719                  81.336579               0                            ;
 node_1800                   89.72355               0                            ;
 node_1801                  90.341125               0                            ;
 node_1802                  90.332089               0                            ;
 node_1832                  90.087118               0                            ;
 node_1900                      95.92               0                            ;
 node_1901                      95.92               0                            ;

[RESERVOIRS]
;ID                                   Head                  Pattern
 node_2547                     126.24                 RES_PATT   ;
 node_2548                     130.58                 RES_PATT   ;

[TANKS]
;ID                              Elevation           Init Level            Min Level            Max Level             Diameter           Min Volume Volume Curve         Overflow            

[PIPES]
;ID                   Node1                Node2                              Length             Diameter            Roughness           Minor Loss               Status
 link_0648            node_0660            node_0608                      50.75             178       61.056034               0                 Open   ;
 link_0655            node_0667            node_0666                       3.37      101.599998       61.056034               0                 Open   ;
 link_0657            node_0668            node_0660                       4.68             178       61.056034               0                 Open   ;
 link_1202            node_1171            node_1137                      42.02      144.800003      112.579244               0                 Open   ;
 link_1400            node_1342            node_1371                  20.200001             178       138.89641               0                 Open   ;
 link_1675            node_1589            node_1596                       4.84             203       42.126802               0                 Open   ;
 link_1679            node_1595            node_1606                       4.09      101.599998       42.126802               0                 Open   ;
 link_1683            node_1602            node_1596                       4.51      152.199997       42.126802               0                 Open   ;
 link_1687            node_1606            node_1609                       1.96      101.599998       42.126802               0                 Open   ;
 link_1913            node_1801            node_1800                      16.23             203      119.082185               0                 Open   ;
 link_1914            node_1802            node_1801                       1.15             203      119.082185               0                 Open   ;
 link_2026            node_2547            node_1901                       1.18             158      278.820632               0                 Open   ;
 newpipe-link_2102    node_0107            node_0116                       7.55            1000    1.0508366593               0                 Open   ;
 newpipe-link_2117    node_0154            node_0173                       9.73            1000    1.0319518302               0                 Open   ;
 newpipe-link_2113    node_0168            node_0154                      21.96            1000   0.24678712966               0                 Open   ;
 newpipe-link_2123    node_0173            node_0168                        9.4            1000   0.85651900759               0                 Open   ;
 newpipe-link_2126    node_0183            node_0071                  98.450003            1000   0.11354737063               0                 Open   ;
 newpipe-link_2147    node_0246            node_0183                  94.759998            1000   0.26825351773               0                 Open   ;
 newpipe-link_2164    node_0307            node_0210                 118.220002            1000   0.26765709347               0                 Open   ;
 newpipe-link_2211    node_0470            node_0388                 108.589999            1000   0.69938314529               0                 Open   ;
 newpipe-link_2252    node_0640            node_0593                  81.989997            1000   0.26709055551               0                 Open   ;
 newpipe-link_2265    node_0712            node_0640                  73.090001            1000   0.12724968021               0                 Open   ;
 link_0640            node_0618            node_0666                  47.509999      101.599998    60.805499711               0                 Open   ;
 newpipe-link_2268    node_0663            node_0660                       2.32            1000   0.18989762673               0                 Open   ;
 newpipe-link_2269    node_0666            node_0663                       2.34            1000   0.18932674635               0                 Open   ;
 newpipe-link_2270    node_0676            node_0668                       5.17            1000   0.72970406097               0                 Open   ;
 newpipe-link_2271    node_0667            node_0676                       8.02            1000   0.28862643444               0                 Open   ;
 newpipe-link_2272    node_0679            node_0667                       6.89            1000   0.16193334987               0                 Open   ;
 newpipe-link_2273    node_0679            node_0668                       8.16            1000   0.17239506423               0                 Open   ;
 newpipe-link_2274    node_0676            node_0683                      20.67            1000   0.27445847166               0                 Open   ;
 newpipe-link_2306    node_0814            node_0785                  64.140001            1000   0.12699724817               0                 Open   ;
 newpipe-link_2315    node_0951            node_0837                 145.379999            1000    1.0792758474               0                 Open   ;
 newpipe-link_2381    node_1091            node_1078                      13.13            1000  0.074608693183               0                 Open   ;
 newpipe-link_2414    node_1217            node_1171                 258.839997            1000   0.16990541762               0                 Open   ;
 newpipe-link_2421    node_1368            node_1234                 142.060005            1000   0.63644972091               0                 Open   ;
 newpipe-link_2491    node_1457            node_1480                  36.479998            1000    1.4990169062               0                 Open   ;
 link_1638            node_1559            node_1584                  62.240001             203    41.969513306               0                 Open   ;
 newpipe-link_2522    node_1592            node_1584                        5.4            1000   0.93757995029               0                 Open   ;
 newpipe-link_2523    node_1584            node_1589                       3.23            1000   0.77389777485               0                 Open   ;
 newpipe-link_2524    node_1592            node_1589                        3.3            1000    1.0200429946               0                 Open   ;
 newpipe-link_2527    node_1595            node_1602                        5.3            1000  0.054682483783               0                 Open   ;
 newpipe-link_2529    node_1606            node_1617                       6.88            1000  0.053272080524               0                 Open   ;
 newpipe-link_2530    node_1617            node_1602                       9.35            1000    0.3160959077               0                 Open   ;
 link_1680            node_1596            node_1615                       6.76             203    41.969513306               0                 Open   ;
 link_1799            node_1719            node_1615                 176.879999             203    41.831881228               0                 Open   ;
 newpipe-link_2559    node_1697            node_1711                  87.970001            1000  0.048957460312               0                 Open   ;
 newpipe-link_2561    node_1718            node_1711                      24.75            1000  0.050031799291               0                 Open   ;
 newpipe-link_2560    node_1711            node_1719                      21.36            1000  0.051652307369               0                 Open   ;
 newpipe-link_2577    node_1800            node_1719                 291.429994            1000   0.64310346353               0                 Open   ;
 newpipe-link_2580    node_1592            node_1802                 494.969991            1000   0.84039360582               0                 Open   ;
 newpipe-link_2179    node_0348            node_0469                 429.799997            1000    1.7048462745               0                 Open   ;
 newpipe-link_2084    node_0070            node_0159                     296.68            1000   0.64920086818               0                 Open   ;
 link_0152            node_0160            node_0070                 111.900002      228.600006    60.805499711               0                 Open   ;
 newpipe-link_2105    node_0116            node_0154                      26.03            1000    0.9886142396               0                 Open   ;
 newpipe-link_2118    node_0160            node_0116                 169.000002            1000   0.97200868823               0                 Open   ;
 newpipe-link_2110    node_0133            node_0183                  84.860002            1000   0.11350680071               0                 Open   ;
 newpipe-link_2136    node_0210            node_0388                 195.769995            1000   0.26625848625               0                 Open   ;
 newpipe-link_2173    node_0307            node_0334                      34.83            1000   0.70675301101               0                 Open   ;
 newpipe-link_2170    node_0328            node_0404                 544.299989            1000   0.90082935265               0                 Open   ;
 link_0333            node_2548            node_0328                  69.089999             254    120.30619745               0                 Open   ;
 newpipe-link_2195    node_0404            node_0470                 410.810005            1000   0.77307815778               0                 Open   ;
 newpipe-link_2259    node_0771            node_0593                 215.939998            1000   0.97575791026               0                 Open   ;
 link_0746            node_0747            node_0640                 194.749996      101.599998    108.22243787               0                 Open   ;
 link_0781            node_0785            node_0712                     127.27       76.599998    108.50316662               0                 Open   ;
 newpipe-link_2295    node_0663            node_0766                 130.270001            1000    0.1405593432               0                 Open   ;
 newpipe-link_2297    node_0814            node_0771                 101.179997            1000   0.26719994311               0                 Open   ;
 newpipe-link_2320    node_0785            node_0869                     186.26            1000   0.12808842385               0                 Open   ;
 newpipe-link_2294    node_0869            node_0747                 187.250002            1000   0.26765139912               0                 Open   ;
 link_0963            node_0951            node_1078                 145.660004             203    75.067901432               0                 Open   ;
 link_1129            node_1078            node_1234                 181.419999             203    41.604520478               0                 Open   ;
 newpipe-link_2426    node_1252            node_1217                 214.330003            1000   0.33681665832               0                 Open   ;
 newpipe-link_2440    node_1393            node_1297                  57.019999            1000   0.11270055867               0                 Open   ;
 newpipe-link_2467    node_1393            node_1404                 112.819998            1000   0.15142205539               0                 Open   ;
 newpipe-link_2474    node_1404            node_1421                      33.51            1000   0.27224490561               0                 Open   ;
 link_1528            node_1457            node_1360                 103.859998      144.800003    111.66343048               0                 Open   ;
 newpipe-link_2494    node_1492            node_1234                 348.379999            1000   0.20809633252               0                 Open   ;
 newpipe-link_2516    node_1565            node_1304                 240.680005            1000  0.049324937561               0                 Open   ;
 link_1579            node_1559            node_1368                 212.290001             203    41.749886828               0                 Open   ;
 newpipe-link_2520    node_1575            node_1697                 171.869999            1000  0.050825237776               0                 Open   ;
 newpipe-link_2515    node_1559            node_1661                 288.569994            1000   0.10323064564               0                 Open   ;
 link_1661            node_1582            node_1492                 124.930004       76.599998    41.824439694               0                 Open   ;
 newpipe-link_2525    node_1565            node_1609                 162.970003            1000  0.048999942172               0                 Open   ;
 newpipe-link_2528    node_1575            node_1615                 145.980003            1000   0.86914898385               0                 Open   ;
 newpipe-link_2532    node_1718            node_1609                 178.250004            1000   0.10293989113               0                 Open   ;
 newpipe-link_2601    node_1832            node_1900                 357.540005            1000    10.712611334               0                 Open   ;
 newpipe-link_2098    node_0107            node_0160                 179.049999            1000   0.21450289306               0                 Open   ;
 newpipe-link_2112    node_0133            node_0210                  83.459997            1000   0.26833339409               0                 Open   ;
 newpipe-link_2178    node_0328            node_0348                 570.419973            1000    1.8182584174               0                 Open   ;
 newpipe-link_2086    node_0070            node_0600                 739.710008            1000   0.26660060561               0                 Open   ;
 newpipe-link_2174    node_0334            node_0388                      70.99            1000   0.70688552444               0                 Open   ;
 newpipe-link_2209    node_0470            node_0334                 122.539996            1000   0.72311473382               0                 Open   ;
 newpipe-link_2213    node_0168            node_0468                1248.209993            1000    1.7926884532               0                 Open   ;
 link_0589            node_0600            node_0618                       9.62      101.599998    60.805499711               0                 Open   ;
 newpipe-link_2256    node_0608            node_0618                      24.28            1000   0.16231543688               0                 Open   ;
 newpipe-link_2293    node_0679            node_0766                 118.590002            1000   0.24343617917               0                 Open   ;
 newpipe-link_2291    node_0747            node_0712                 249.840004            1000   0.18512492963               0                 Open   ;
 newpipe-link_2296    node_1137            node_0766                 362.450002            1000   0.53321789352               0                 Open   ;
 link_1117            node_1091            node_1232                 167.859997      101.599998    41.872578661               0                 Open   ;
 link_1206            node_1171            node_1252                  89.670004      144.800003    111.52757711               0                 Open   ;
 newpipe-link_2411    node_1217            node_1340                     215.76            1000    0.1764968028               0                 Open   ;
 newpipe-link_2393    node_1137            node_1342                 401.389996            1000   0.21098558912               0                 Open   ;
 newpipe-link_2422    node_1232            node_1382                     157.94            1000   0.10295065388               0                 Open   ;
 newpipe-link_2432    node_1342            node_1297                 121.200001            1000   0.18934553882               0                 Open   ;
 newpipe-link_2430    node_1360            node_1252                     107.33            1000   0.69943272694               0                 Open   ;
 newpipe-link_2463    node_1304            node_1382                 243.070008            1000   0.10302521553               0                 Open   ;
 newpipe-link_2457    node_1360            node_1340                 242.969999            1000   0.15297600768               0                 Open   ;
 newpipe-link_2469    node_1404            node_1297                 137.130003            1000  0.066361200238               0                 Open   ;
 newpipe-link_2460    node_1393            node_1371                  94.240001            1000   0.20252017172               0                 Open   ;
 newpipe-link_2477    node_1420            node_1492                 206.399998            1000   0.07110236956               0                 Open   ;
 link_1432            node_1371            node_1480                 190.099996             178    137.19393664               0                 Open   ;
 link_1533            node_1475            node_1382                 125.819999      101.599998    41.812968289               0                 Open   ;
 newpipe-link_2497    node_1480            node_1522                 456.720004            1000   0.16418053504               0                 Open   ;
 link_1610            node_1595            node_1475                 142.609997      101.599998    41.911513245               0                 Open   ;
 newpipe-link_2521    node_1582            node_1475                 304.489999            1000  0.049353238321               0                 Open   ;
 newpipe-link_2517    node_1565            node_1697                 361.909995            1000  0.050523801116               0                 Open   ;
 newpipe-link_2540    node_1582            node_1661                       79.2            1000  0.049672437769               0                 Open   ;
 newpipe-link_2578    node_1800            node_1718                 301.410006            1000   0.10709659611               0                 Open   ;
 newpipe-link_2582    node_1802            node_1832                      24.95            1000    3.6287662078               0                 Open   ;
 newpipe-link_2087    node_0071            node_0133                 150.849997            1000   0.11416769945               0                 Open   ;
 newpipe-link_2149    node_0307            node_0246                  82.349998            1000   0.70045970394               0                 Open   ;
 newpipe-link_2184    node_0608            node_0159                 444.929998            1000    0.7194926755               0                 Open   ;
 newpipe-link_2458    node_1368            node_1232                 411.040007            1000   0.10979379696               0                 Open   ;
 newpipe-link_2451    node_1340            node_1522                 275.849998            1000   0.13678672136               0                 Open   ;
 newpipe-link_2531    node_1457            node_1522                 919.110001            1000   0.27107755176               0                 Open   ;
 newpipe-link_2553    node_1661            node_1617                 339.730005            1000   0.10118905172               0                 Open   ;
 newpipe-link_2111    node_0159            node_0600                 603.789995            1000   0.47574129843               0                 Open   ;
 newpipe-link_2148    node_0246            node_0071                 317.840001            1000   0.20369018358               0                 Open   ;
 newpipe-link_2190    node_0348            node_0404                      55.84            1000    1.8105862826               0                 Open   ;
 newpipe-link_2210    node_0173            node_0593                 467.899998            1000   0.96866513272               0                 Open   ;
 newpipe-link_2300    node_0771            node_0107                  749.02001            1000    0.2260250901               0                 Open   ;
 newpipe-link_2321    node_0869            node_0814                     244.75            1000   0.26553486665               0                 Open   ;
 newpipe-link_2275    node_0684            node_0836                1677.209996            1000    1.1660520652               0                 Open   ;
 newpipe-link_2341    node_1091            node_0951                 312.320006            1000   0.22366978029               0                 Open   ;
 newpipe-link_2492    node_1304            node_1575                1668.319998            1000   0.11722901302               0                 Open   ;
 newpipe-link_2583    node_1801            node_1832                      30.87            1000   0.33436925391               0                 Open   ;

[PUMPS]
;ID                   Node1                Node2                Properties          

[VALVES]
;ID                   Node1                Node2                            Diameter Type              Setting           Minor Loss
 link_2214            node_0469            node_0468                        100 PRV               30             1.5   ;
 link_2312            node_0837            node_0836                        100 PRV               35             1.5   ;
 link_2602            node_1901            node_1900                        150 PRV               22             1.5   ;