; Filename: Networks/BWFLnet_modified.inp
; WNTR: 0.4.2
; Created: 2024-04-17 22:36:18
[TITLE]

[JUNCTIONS]
;ID                      Elevation       Demand Pattern                 
 node_0038                  37.472641   0.33121576741 DMA2_upper1                ;
 node_0041                  42.304933   0.38664599283 DMA2_upper1                ;
 node_0055                  83.295776  0.079749554987 DMA2_upper1                ;
 node_0056                  45.395528   0.33076598656 DMA2_upper1                ;
 node_0070                  14.934464  0.017415927072 DMA2_upper1                ;
 node_0071                  83.076583   0.61003857231 DMA2_upper1                ;
 node_0104                  45.328371   0.11711453356 DMA2_upper1                ;
 node_0107                  25.219164  0.038364925023 DMA2_upper1                ;
 node_0111                  45.379492   0.64208712023 DMA2_upper1                ;
 node_0116                  25.299657 0.0049260398659 DMA2_upper1                ;
 node_0133                  82.522552  0.097623379869 DMA2_upper1                ;
 node_0154                  28.121197               0                            ;
 node_0159                  40.214785   0.15237897751 DMA2_upper1                ;
 node_0160                  15.917638   0.14746293622 DMA2_upper1                ;
 node_0168                  27.461259 0.0017299480658 DMA2_upper1                ;
 node_0173                  30.089888  0.070828187538 DMA2_upper1                ;
 node_0183                  77.674321   0.17016747175 DMA2_upper1                ;
 node_0210                  77.513405   0.16339627094 DMA2_upper1                ;
 node_0246                  71.562474   0.82066755969 DMA2_upper1                ;
 node_0307                  72.396093   0.30594801154 DMA2_upper1                ;
 node_0328                  61.146522 0.0018716548622 DMA2_upper1                ;
 node_0334                  73.180132   0.16811957857 DMA2_upper1                ;
 node_0348                   66.05854   0.03505277825 DMA2_upper1                ;
 node_0354                      46.37   0.32427695827 DMA1_upper1                ;
 node_0388                  72.093517   0.13610346514 DMA2_upper1                ;
 node_0404                  66.237974   0.13519757567 DMA2_upper1                ;
 node_0468                     73.449 0.0026800519342 DMA2_upper1                ;
 node_0469                     73.449               0                            ;
 node_0470                  73.019996  0.057312426326 DMA2_upper1                ;
 node_0473                   39.55137   0.15273060475 DMA2_upper1                ;
 node_0526                  49.754813   0.28076150199 DMA1_upper1                ;
 node_0593                  40.855083  0.056766746765 DMA2_upper1                ;
 node_0600                  52.945876   0.16689439955 DMA2_upper1                ;
 node_0608                  53.021005   0.05742008607 DMA2_upper1                ;
 node_0618                  53.047933  0.016073534973 DMA2_upper1                ;
 node_0640                  42.317869    0.0850743364 DMA2_lower2                ;
 node_0660                  53.731352               0                            ;
 node_0663                  53.732958               0                            ;
 node_0666                   53.73146  0.008081474374 DMA2_upper1                ;
 node_0667                  53.776299               0                            ;
 node_0668                  53.789872               0                            ;
 node_0676                  53.803288 0.0064924705365 DMA2_upper1                ;
 node_0679                  53.843655  0.005856979814 DMA2_upper1                ;
 node_0683                     54.761 0.0023275294635 DMA2_upper1                ;
 node_0684                     54.761  0.018170009109 DMA1_upper1                ;
 node_0712                  42.562841  0.094214948614 DMA2_upper1                ;
 node_0723                  52.987605    0.9682225932 DMA1_upper1                ;
 node_0729                  55.275458   0.39348862541 DMA1_upper1                ;
 node_0747                  44.442866   0.21598692117 DMA2_upper1                ;
 node_0766                  55.102091   0.12217432344 DMA2_upper1                ;
 node_0771                  42.995102   0.05157242382 DMA2_upper1                ;
 node_0785                      44.33   0.11771054113 DMA2_upper1                ;
 node_0791                  43.029238   0.53744978182 DMA2_upper1                ;
 node_0814                  43.859012   0.16679309595 DMA2_upper1                ;
 node_0815                  57.412705    1.7404425403 DMA1_upper1                ;
 node_0827                  57.661054   0.28002394111 DMA1_upper1                ;
 node_0836                     58.371               0                            ;
 node_0837                     58.371 0.0038931353805 DMA1_upper1                ;
 node_0869                   45.48233   0.15488906563 DMA2_upper1                ;
 node_0879                  44.922983   0.23182818079 DMA2_upper1                ;
 node_0951                  62.486626   0.20601908903 DMA1_upper1                ;
 node_0959                  48.726783   0.26959043233 DMA1_upper1                ;
 node_1033                  68.406358   0.45488150762 DMA1_upper1                ;
 node_1037                  57.370318   0.72927339708 DMA1_upper1                ;
 node_1078                  65.840502  0.047481819414 DMA1_upper1                ;
 node_1091                  65.907461   0.27718869238 DMA1_upper1                ;
 node_1137                  59.094566   0.23155294707 DMA2_upper1                ;
 node_1161                  67.526182   0.35618339504 DMA1_upper1                ;
 node_1171                  60.042555   0.27359471204 DMA2_upper1                ;
 node_1194                     67.525   0.25844397477 DMA1_upper1                ;
 node_1195                  53.915856   0.22602539625 DMA2_upper1                ;
 node_1202                     67.803  0.056641711983 DMA1_upper1                ;
 node_1217                  55.069599   0.30431717164 DMA2_upper1                ;
 node_1220                   67.57172   0.13555960132 DMA1_upper1                ;
 node_1224                  67.787999  0.057510667953 DMA1_upper1                ;
 node_1232                  69.427428   0.15356301345 DMA1_upper1                ;
 node_1234                  69.538684  0.028622902182 DMA1_upper1                ;
 node_1252                  60.451687    0.2452895205 DMA2_upper1                ;
 node_1272                  68.174827   0.30165693043 DMA1_upper1                ;
 node_1297                  61.115099  0.062144785767 DMA2_upper1                ;
 node_1304                  67.807691   0.45545944707 DMA1_upper1                ;
 node_1340                  57.210353   0.31666018338 DMA2_upper1                ;
 node_1342                  59.385127   0.70085502714 DMA2_upper1                ;
 node_1345                  72.893248   0.48386279492 DMA1_upper1                ;
 node_1360                  60.844791   0.17743111661 DMA2_upper1                ;
 node_1368                  72.319557   0.14436202651 DMA1_upper1                ;
 node_1371                  59.253145   0.34567515745 DMA2_upper1                ;
 node_1382                  72.513228   0.23917201784 DMA1_upper1                ;
 node_1393                  61.946088  0.047514660967 DMA2_upper1                ;
 node_1399                  61.948681   0.22207157075 DMA2_upper1                ;
 node_1404                  63.699641   0.43896089997 DMA2_upper1                ;
 node_1420                      63.61  0.077509100506 DMA1_upper1                ;
 node_1421                      63.61               0                            ;
 node_1457                  60.300601   0.13587314956 DMA2_upper1                ;
 node_1475                  75.306778   0.28706772961 DMA1_upper1                ;
 node_1480                  59.789844   0.38539788026 DMA2_upper1                ;
 node_1492                  65.776894  0.032706257147 DMA1_upper1                ;
 node_1522                   56.25276   0.67177897396 DMA2_upper1                ;
 node_1559                  75.935183  0.098367751767 DMA1_upper1                ;
 node_1565                   75.84252   0.37735729284 DMA1_upper1                ;
 node_1575                  75.994044  0.093640705663 DMA1_upper1                ;
 node_1582                  70.260123   0.15285339439 DMA1_upper1                ;
 node_1583                  76.662915        0.027742 DMA1_upper1                ;
 node_1584                   76.86781               0                            ;
 node_1589                  76.917749               0                            ;
 node_1592                  76.922301               0                            ;
 node_1595                  76.974071  0.074371057855 DMA1_upper1                ;
 node_1596                  76.947451               0                            ;
 node_1602                  77.007042               0                            ;
 node_1606                  77.005346               0                            ;
 node_1609                  77.024403   0.14369916296 DMA1_upper1                ;
 node_1615                  76.965734  0.043782505077 DMA1_upper1                ;
 node_1617                  77.034767   0.26341731821 DMA1_upper1                ;
 node_1622                  53.711937   0.23899876563 DMA2_upper1                ;
 node_1629                  57.049073   0.22808014455 DMA2_upper1                ;
 node_1661                  72.589952   0.18169489142 DMA1_upper1                ;
 node_1688                   75.19065   0.84311671705 DMA1_upper1                ;
 node_1697                  81.443804   0.23624982359 DMA1_upper1                ;
 node_1711                  81.153169  0.035432338069 DMA1_upper1                ;
 node_1718                  81.379693   0.33257580591 DMA1_upper1                ;
 node_1719                  81.336579  0.061917992615 DMA1_upper1                ;
 node_1738                     65.867   0.29990625389 DMA2_upper1                ;
 node_1772                  70.550087   0.67643926092 DMA1_upper1                ;
 node_1781                     68.696   0.81425097129 DMA1_upper1                ;
 node_1800                   89.72355   0.21474628853 DMA1_upper1                ;
 node_1801                  90.341125               0                            ;
 node_1802                  90.332089 0.0061867458972                            ;
 node_1812                  89.906245   0.18400908811 DMA1_upper1                ;
 node_1832                  90.087118 0.0011632541028                            ;
 node_1848                  87.601587   0.51488432497 DMA1_upper1                ;
 node_1865                  78.149544   0.26450866169 DMA1_upper1                ;
 node_1872                  79.289707   0.32803969297 DMA1_upper1                ;
 node_1876                     81.201  0.039253291833 DMA1_upper1                ;
 node_1900                      95.92               0                            ;
 node_1901                      95.92               0                            ;
 node_1925                     82.016   0.02791970007 DMA2_upper1                ;
 node_1938                     15.691  0.096450448383 DMA2_upper1                ;
 node_1961                     41.206  0.016257031841 DMA2_upper1                ;
 node_1971                     37.157   0.11315171964 DMA2_upper1                ;
 node_1983                      34.11   0.28498925635 DMA1_upper1                ;
 node_2012                     60.029               0                            ;
 node_2046                     41.391     1.153885542 DMA2_upper1                ;
 node_2113                     59.562    1.1390143763 DMA1_upper1                ;
 node_2188                      66.44   0.07338964081 DMA1_upper1                ;
 node_2197                     44.616   0.47030540541 DMA2_upper1                ;
 node_2210                      57.47   0.18112674477 DMA1_upper1                ;
 node_2243                     58.877   0.35779137583 DMA2_upper1                ;
 node_2265                      65.47   0.21607971533 DMA1_upper1                ;
 node_2285                      54.86   0.11097123607 DMA2_upper1                ;
 node_2354                     46.984   0.24640631707 DMA2_upper1                ;
 node_2428                     76.602               0                            ;
 node_2440                     53.061  0.074917212073 DMA2_upper1                ;
 node_2441                     61.884   0.37822655538 DMA2_upper1                ;
 node_2485                     71.595  0.098598406905 DMA1_upper1                ;
 node_2535                     90.956  0.067751708167 DMA1_upper1                ;

[RESERVOIRS]
;ID                                   Head                  Pattern
 node_2547                     126.24                 RES_PATT   ;
 node_2548                     130.58                 RES_PATT   ;

[TANKS]
;ID                              Elevation           Init Level            Min Level            Max Level             Diameter           Min Volume Volume Curve         Overflow            

[PIPES]
;ID                   Node1                Node2                              Length             Diameter            Roughness           Minor Loss               Status
 link_0109            node_0104            node_0111                       2.51      152.399994      118.892141               0                 Open   ;
 link_0354            node_2548            node_2012                       0.51             250      123.603314               0                 Open   ;
 link_0648            node_0660            node_0608                      50.75             178       61.056034               0                 Open   ;
 link_0655            node_0667            node_0666                       3.37      101.599998       61.056034               0                 Open   ;
 link_0657            node_0668            node_0660                       4.68             178       61.056034               0                 Open   ;
 link_0789            node_0791            node_0771                      15.65             178       91.506789               0                 Open   ;
 link_0822            node_0815            node_0827                      20.67             178       75.393101               0                 Open   ;
 link_1202            node_1171            node_1137                      42.02      144.800003      112.579244               0                 Open   ;
 link_1400            node_1342            node_1371                  20.200001             178       138.89641               0                 Open   ;
 link_1453            node_1393            node_1399                        1.3       72.199997      112.579244               0                 Open   ;
 link_1638            node_1559            node_1583                  51.610001             203       42.126802               0                 Open   ;
 link_1668            node_2428            node_1583                       2.62      101.599998      110.285592               0                 Open   ;
 link_1670            node_1583            node_1584                      10.63             203       42.126802               0                 Open   ;
 link_1675            node_1589            node_1596                       4.84             203       42.126802               0                 Open   ;
 link_1679            node_1595            node_1606                       4.09      101.599998       42.126802               0                 Open   ;
 link_1683            node_1602            node_1596                       4.51      152.199997       42.126802               0                 Open   ;
 link_1687            node_1606            node_1609                       1.96      101.599998       42.126802               0                 Open   ;
 link_1913            node_1801            node_1800                      16.23             203      119.082185               0                 Open   ;
 link_1914            node_1802            node_1801                       1.15             203      119.082185               0                 Open   ;
 link_1993            node_1872            node_1876                      48.02       76.599998       33.736564               0                 Open   ;
 link_2026            node_2547            node_1901                       1.18             158      278.820632               0                 Open   ;
 new-pipe-24          node_1925            node_0055               22.602314468    37.640812122             100               0                 Open   ;
 new-pipe-26          node_0056            node_0041               22.602314468     106.7388898             100               0                 Open   ;
 new-pipe-37          node_0070            node_1938               22.602314468    92.174941218             100               0                 Open   ;
 new-pipe-65          node_0107            node_0116               22.602314468     196.4022524             100               0                 Open   ;
 new-pipe-79          node_0133            node_0055               22.602314468    59.017637201             100               0                 Open   ;
 new-pipe-84          node_0111            node_1961               22.602314468    123.46956268             100               0                 Open   ;
 new-pipe-97          node_0159            node_1961               22.602314468    141.45844577             100               0                 Open   ;
 new-pipe-99          node_0154            node_0173               22.602314468    209.18847856             100               0                 Open   ;
 new-pipe-100         node_0168            node_0154               22.602314468    85.905229366             100               0                 Open   ;
 new-pipe-110         node_0173            node_0168               22.602314468    197.63676565             100               0                 Open   ;
 new-pipe-112         node_0183            node_0071               22.602314468    56.102287389             100               0                 Open   ;
 new-pipe-121         node_0210            node_0133               22.602314468     80.57148062             100               0                 Open   ;
 new-pipe-132         node_0246            node_0183               22.602314468    78.523099274             100               0                 Open   ;
 new-pipe-140         node_0307            node_0246               22.602314468    116.90257457             100               0                 Open   ;
 new-pipe-151         node_0307            node_0210               22.602314468    75.027393977             100               0                 Open   ;
 new-pipe-186         node_0328            node_2012               22.602314468    218.39739655             100               0                 Open   ;
 new-pipe-192         node_0388            node_0334               22.602314468    121.20936793             100               0                 Open   ;
 new-pipe-220         node_0470            node_0334               22.602314468    108.67045962             100               0                 Open   ;
 new-pipe-226         node_0470            node_0388               22.602314468    109.94948652             100               0                 Open   ;
 new-pipe-288         node_0640            node_0593               22.602314468    80.785114665             100               0                 Open   ;
 new-pipe-291         node_0600            node_0618               22.602314468    100.36565375             100               0                 Open   ;
 new-pipe-302         node_0608            node_0618               22.602314468    85.728271762             100               0                 Open   ;
 new-pipe-323         node_0712            node_0640               22.602314468    62.381408055             100               0                 Open   ;
 new-pipe-324         node_0618            node_0666               22.602314468    72.303656166             100               0                 Open   ;
 new-pipe-331         node_0663            node_0660               22.602314468    147.51350056             100               0                 Open   ;
 new-pipe-333         node_0666            node_0663               22.602314468    147.22070545             100               0                 Open   ;
 new-pipe-335         node_0676            node_0668               22.602314468    209.51177016             100               0                 Open   ;
 new-pipe-338         node_0667            node_0676               22.602314468    134.05525804             100               0                 Open   ;
 new-pipe-340         node_0679            node_0667               22.602314468    111.00221232             100               0                 Open   ;
 new-pipe-342         node_0679            node_0668               22.602314468    109.79909691             100               0                 Open   ;
 new-pipe-346         node_0676            node_0683               22.602314468    92.146337226             100               0                 Open   ;
 new-pipe-412         node_0814            node_0785               22.602314468    64.131599237             100               0                 Open   ;
 new-pipe-425         node_0836            node_0815               22.602314468     173.2706706             100               0                 Open   ;
 new-pipe-437         node_0879            node_0814               22.602314468    77.055765824             100               0                 Open   ;
 new-pipe-454         node_0869            node_0879               22.602314468    72.493356776             100               0                 Open   ;
 new-pipe-464         node_0951            node_0837               22.602314468    122.24267301             100               0                 Open   ;
 new-pipe-540         node_2243            node_1137               22.602314468    131.03252417             100               0                 Open   ;
 new-pipe-543         node_1091            node_1078               22.602314468    72.236005659             100               0                 Open   ;
 new-pipe-584         node_1232            node_1091               22.602314468    48.453652323             100               0                 Open   ;
 new-pipe-587         node_0879            node_2197               22.602314468    113.19029605             100               0                 Open   ;
 new-pipe-588         node_2285            node_1195               22.602314468    73.803778352             100               0                 Open   ;
 new-pipe-589         node_2265            node_1220               22.602314468    56.026314866             100               0                 Open   ;
 new-pipe-594         node_1217            node_1195               22.602314468    97.931002748             100               0                 Open   ;
 new-pipe-599         node_1202            node_1234               22.602314468    127.50259304             100               0                 Open   ;
 new-pipe-604         node_1217            node_1171               22.602314468    54.392108317             100               0                 Open   ;
 new-pipe-608         node_1224            node_1220               22.602314468     135.3681146             100               0                 Open   ;
 new-pipe-660         node_1345            node_1220               22.602314468    50.456149801             100               0                 Open   ;
 new-pipe-689         node_1272            node_1368               22.602314468    58.760177244             100               0                 Open   ;
 new-pipe-690         node_1368            node_1234               22.602314468    100.32846196             100               0                 Open   ;
 new-pipe-706         node_1399            node_1371               22.602314468    71.196238436             100               0                 Open   ;
 new-pipe-749         node_1457            node_1480               22.602314468    183.85236769             100               0                 Open   ;
 new-pipe-778         node_1595            node_1475               22.602314468    50.107401621             100               0                 Open   ;
 new-pipe-807         node_1592            node_1584               22.602314468    227.74209754             100               0                 Open   ;
 new-pipe-809         node_1584            node_1589               22.602314468    235.08826914             100               0                 Open   ;
 new-pipe-811         node_1592            node_1589               22.602314468    260.23621179             100               0                 Open   ;
 new-pipe-818         node_1595            node_1602               22.602314468    77.524161871             100               0                 Open   ;
 new-pipe-823         node_1606            node_1617               22.602314468    72.699191491             100               0                 Open   ;
 new-pipe-825         node_1617            node_1602               22.602314468    134.41207703             100               0                 Open   ;
 new-pipe-829         node_1596            node_1615               22.602314468    187.22347666             100               0                 Open   ;
 new-pipe-847         node_1629            node_1622               22.602314468    84.108075485             100               0                 Open   ;
 new-pipe-857         node_1582            node_1661               22.602314468    42.846513691             100               0                 Open   ;
 new-pipe-877         node_1697            node_1565               22.602314468    31.915595599             100               0                 Open   ;
 new-pipe-882         node_1719            node_1615               22.602314468    95.773463654             100               0                 Open   ;
 new-pipe-884         node_1697            node_1711               22.602314468    41.815237526             100               0                 Open   ;
 new-pipe-888         node_1718            node_1711               22.602314468    48.697741769             100               0                 Open   ;
 new-pipe-890         node_1711            node_1719               22.602314468    56.919535561             100               0                 Open   ;
 new-pipe-930         node_1781            node_1772               22.602314468    45.833201452             100               0                 Open   ;
 new-pipe-943         node_1800            node_1719               22.602314468    87.208424897             100               0                 Open   ;
 new-pipe-947         node_1592            node_1802               22.602314468    86.391657574             100               0                 Open   ;
 new-pipe-952         node_1801            node_1812               22.602314468    107.71359204             100               0                 Open   ;
 new-pipe-963         node_1832            node_1812               22.602314468    262.21346914             100               0                 Open   ;
 new-pipe-967         node_1802            node_1832               22.602314468    278.67902389             100               0                 Open   ;
 new-pipe-974         node_1848            node_1812               22.602314468    59.518937636             100               0                 Open   ;
 new-pipe-983         node_1772            node_1865               22.602314468    41.826838981             100               0                 Open   ;
 new-pipe-987         node_1848            node_1865               22.602314468    58.975924041             100               0                 Open   ;
 new-pipe-990         node_1865            node_1872               22.602314468    64.785277885             100               0                 Open   ;
 new-pipe-995         node_1876            node_2535               22.602314468    36.406643657             100               0                 Open   ;
 new-pipe-1016        node_0348            node_0469               22.602314468    116.57645915             100               0                 Open   ;
 new-pipe-1019        node_0038            node_0056               22.602314468    57.458557099             100               0                 Open   ;
 new-pipe-1021        node_0070            node_0159               22.602314468      87.0240254             100               0                 Open   ;
 new-pipe-1022        node_0041            node_0038               22.602314468    88.121521881             100               0                 Open   ;
 new-pipe-1024        node_0056            node_0104               22.602314468    124.16408317             100               0                 Open   ;
 new-pipe-1025        node_0071            node_0055               22.602314468     60.54758919             100               0                 Open   ;
 new-pipe-1026        node_0038            node_1971               22.602314468    62.162280129             100               0                 Open   ;
 new-pipe-1029        node_0070            node_0160               22.602314468    136.44179248             100               0                 Open   ;