; Filename: Networks/BWFLnet_modified.inp
; WNTR: 0.4.2
; Created: 2024-04-17 22:48:14
[TITLE]

[JUNCTIONS]
;ID                      Elevation       Demand Pattern                 
 node_0354                      46.37   0.74626437171 DMA1_upper1                ;
 node_0468                     73.449   0.22009383091 DMA2_upper1                ;
 node_0469                     73.449   0.93968740211 DMA2_upper1                ;
 node_0683                     54.761    0.2631001605 DMA2_upper1                ;
 node_0684                     54.761   0.96039851593 DMA1_upper1                ;
 node_0785                      44.33   0.75013805277 DMA2_upper1                ;
 node_0836                     58.371    2.8213446078 DMA1_upper1                ;
 node_0837                     58.371   0.53449569607 DMA1_upper1                ;
 node_1194                     67.525   0.80370064046 DMA1_upper1                ;
 node_1202                     67.803   0.68178852619 DMA1_upper1                ;
 node_1420                      63.61  0.092403958042 DMA1_upper1                ;
 node_1421                      63.61   0.49656614768 DMA2_upper1                ;
 node_1738                     65.867   0.62448804852 DMA2_upper1                ;
 node_1781                     68.696    1.4749112261 DMA1_upper1                ;
 node_1876                     81.201   0.76169835431 DMA1_upper1                ;
 node_1900                      95.92    1.1696285535 DMA1_upper1                ;
 node_1901                      95.92               0                            ;
 node_1925                     82.016    1.2119092995 DMA2_upper1                ;
 node_1938                     15.691   0.31145086382 DMA2_upper1                ;
 node_1961                     41.206    1.6705470369 DMA2_upper1                ;
 node_1971                     37.157   0.51346422753 DMA2_upper1                ;
 node_1983                      34.11    0.5363189608 DMA1_upper1                ;
 node_2012                     60.029   0.65757129767 DMA2_upper1                ;
 node_2046                     41.391    1.3585349069 DMA2_upper1                ;
 node_2113                     59.562    1.2963358552 DMA1_upper1                ;
 node_2188                      66.44    1.1352551016 DMA1_upper1                ;
 node_2197                     44.616    1.0267137435 DMA2_upper1                ;
 node_2210                      57.47   0.40603954313 DMA1_upper1                ;
 node_2243                     58.877    1.5846655908 DMA2_upper1                ;
 node_2265                      65.47   0.61671810584 DMA1_upper1                ;
 node_2285                      54.86    1.6841507024 DMA2_upper1                ;
 node_2354                     46.984   0.42608625975 DMA2_upper1                ;
 node_2428                     76.602    2.4162544645 DMA1_upper1                ;
 node_2440                     53.061   0.88188719029 DMA2_upper1                ;
 node_2441                     61.884    1.2525582372 DMA2_upper1                ;
 node_2485                     71.595   0.61137780921 DMA1_upper1                ;
 node_2535                     90.956  0.067751708167 DMA1_upper1                ;

[RESERVOIRS]
;ID                                   Head                  Pattern
 node_2547                     126.24                 RES_PATT   ;
 node_2548                     130.58                 RES_PATT   ;

[TANKS]
;ID                              Elevation           Init Level            Min Level            Max Level             Diameter           Min Volume Volume Curve         Overflow            

[PIPES]
;ID                   Node1                Node2                              Length             Diameter            Roughness           Minor Loss               Status
 link_0354            node_2548            node_2012                       0.51             250      123.603314               0                 Open   ;
 link_2026            node_2547            node_1901                       1.18             158      278.820632               0                 Open   ;
 new-pipe-995         node_1876            node_2535               22.602314468    36.406643657             100               0                 Open   ;
 new-pipe-1228        node_1961            node_1971               22.602314468    68.050082524             100               0                 Open   ;
 new-pipe-1249        node_0469            node_2012               22.602314468     109.0581361             100               0                 Open   ;
 new-pipe-1250        node_2012            node_1925               22.602314468    44.148382907             100               0                 Open   ;
 new-pipe-1251        node_1925            node_0469               22.602314468    48.108329144             100               0                 Open   ;
 new-pipe-1252        node_1983            node_0354               22.602314468    26.567566818             100               0                 Open   ;
 new-pipe-1285        node_2210            node_0684               22.602314468    46.694132079             100               0                 Open   ;
 new-pipe-1290        node_1202            node_0837               22.602314468    90.128177776             100               0                 Open   ;
 new-pipe-1360        node_1876            node_1781               22.602314468    39.749222081             100               0                 Open   ;
 new-pipe-1369        node_1938            node_1961               22.602314468    70.298235701             100               0                 Open   ;
 new-pipe-1370        node_1938            node_1971               22.602314468     10.53003094             100               0                 Open   ;
 new-pipe-1381        node_1983            node_0836               22.602314468    28.850744268             100               0                 Open   ;
 new-pipe-1383        node_0354            node_0836               22.602314468    34.963878912             100               0                 Open   ;
 new-pipe-1385        node_2243            node_0683               22.602314468    69.961855396             100               0                 Open   ;
 new-pipe-1390        node_2197            node_0785               22.602314468    70.967166756             100               0                 Open   ;
 new-pipe-1400        node_1194            node_2113               22.602314468    27.873928205             100               0                 Open   ;
 new-pipe-1404        node_1738            node_1421               22.602314468     45.96101402             100               0                 Open   ;
 new-pipe-1407        node_1420            node_1202               22.602314468    34.998375287             100               0                 Open   ;
 new-pipe-1436        node_1938            node_0468               22.602314468    54.565996431             100               0                 Open   ;
 new-pipe-1441        node_0684            node_0836               22.602314468    80.928287003             100               0                 Open   ;
 new-pipe-1442        node_0684            node_1983               22.602314468    13.420299081             100               0                 Open   ;
 new-pipe-1443        node_0684            node_0354               22.602314468    16.259643204             100               0                 Open   ;
 new-pipe-1444        node_0836            node_2210               22.602314468    42.253788117             100               0                 Open   ;
 new-pipe-1445        node_2210            node_1983               22.602314468    6.6520901612             100               0                 Open   ;
 new-pipe-1446        node_2210            node_0354               22.602314468    8.0587475978             100               0                 Open   ;
 new-pipe-1448        node_2285            node_2243               22.602314468    77.581543764             100               0                 Open   ;
 new-pipe-1460        node_2441            node_2440               22.602314468    39.842743304             100               0                 Open   ;
 new-pipe-1472        node_1938            node_0683               22.602314468    46.252441757             100               0                 Open   ;
 new-pipe-1473        node_1938            node_2243               22.602314468    7.9753199306             100               0                 Open   ;
 new-pipe-1474        node_1961            node_0683               22.602314468    89.479442071             100               0                 Open   ;
 new-pipe-1475        node_1961            node_2243               22.602314468    15.401127954             100               0                 Open   ;
 new-pipe-1476        node_1971            node_0683               22.602314468     23.98108491             100               0                 Open   ;
 new-pipe-1477        node_1971            node_2243               22.602314468    4.2762263162             100               0                 Open   ;
 new-pipe-1483        node_0837            node_2113               22.602314468    15.407864422             100               0                 Open   ;
 new-pipe-1485        node_0837            node_1194               22.602314468    25.012853526             100               0                 Open   ;
 new-pipe-1486        node_1202            node_2113               22.602314468    18.219174728             100               0                 Open   ;
 new-pipe-1487        node_1202            node_1194               22.602314468    49.419776743             100               0                 Open   ;
 new-pipe-1488        node_2188            node_2265               22.602314468     42.01587675             100               0                 Open   ;
 new-pipe-1499        node_1900            node_1781               22.602314468    35.862720034             100               0                 Open   ;
 new-pipe-1500        node_1900            node_1876               22.602314468    41.932821143             100               0                 Open   ;
 new-pipe-1505        node_2046            node_0468               22.602314468    50.887471033             100               0                 Open   ;
 new-pipe-1507        node_2046            node_0785               22.602314468    28.540030029             100               0                 Open   ;
 new-pipe-1508        node_2046            node_2197               22.602314468    26.550052919             100               0                 Open   ;
 new-pipe-1509        node_2046            node_1938               22.602314468    42.105993824             100               0                 Open   ;
 new-pipe-1511        node_0468            node_0785               22.602314468    45.131253872             100               0                 Open   ;
 new-pipe-1512        node_0468            node_2197               22.602314468    35.463895303             100               0                 Open   ;
 new-pipe-1513        node_0785            node_1938               22.602314468    37.637919814             100               0                 Open   ;
 new-pipe-1515        node_2197            node_1938               22.602314468    29.566591684             100               0                 Open   ;
 new-pipe-1517        node_2354            node_0468               22.602314468     35.19257163             100               0                 Open   ;
 new-pipe-1518        node_2354            node_0785               22.602314468    31.859751905             100               0                 Open   ;
 new-pipe-1519        node_2354            node_2197               22.602314468    28.335324433             100               0                 Open   ;
 new-pipe-1520        node_2354            node_1938               22.602314468    29.484655126             100               0                 Open   ;
 new-pipe-1522        node_2354            node_2046               22.602314468    21.881484347             100               0                 Open   ;
 new-pipe-1529        node_2285            node_2440               22.602314468    39.981517873             100               0                 Open   ;
 new-pipe-1530        node_2285            node_2441               22.602314468    42.821580134             100               0                 Open   ;
 new-pipe-1532        node_2440            node_2243               22.602314468     38.62021032             100               0                 Open   ;
 new-pipe-1534        node_2243            node_2441               22.602314468    43.898598423             100               0                 Open   ;
 new-pipe-1536        node_2243            node_1421               22.602314468    32.892930486             100               0                 Open   ;
 new-pipe-1537        node_2243            node_1738               22.602314468    35.773247115             100               0                 Open   ;
 new-pipe-1538        node_1421            node_2285               22.602314468    32.455075083             100               0                 Open   ;
 new-pipe-1539        node_1421            node_2440               22.602314468    27.010449342             100               0                 Open   ;
 new-pipe-1540        node_1421            node_2441               22.602314468    31.229918563             100               0                 Open   ;
 new-pipe-1541        node_1738            node_2285               22.602314468      34.9192111             100               0                 Open   ;
 new-pipe-1542        node_1738            node_2440               22.602314468    28.658459313             100               0                 Open   ;
 new-pipe-1543        node_1738            node_2441               22.602314468    33.118285724             100               0                 Open   ;
 new-pipe-1554        node_2485            node_2188               22.602314468    16.764901629             100               0                 Open   ;
 new-pipe-1555        node_2485            node_2265               22.602314468    14.727226919             100               0                 Open   ;
 new-pipe-1562        node_1961            node_0468               22.602314468    44.155276343             100               0                 Open   ;
 new-pipe-1563        node_1961            node_2046               22.602314468    27.981790899             100               0                 Open   ;
 new-pipe-1564        node_1961            node_0785               22.602314468    24.983175523             100               0                 Open   ;
 new-pipe-1565        node_1961            node_2197               22.602314468    19.586400906             100               0                 Open   ;
 new-pipe-1566        node_1961            node_2354               22.602314468    19.617142221             100               0                 Open   ;
 new-pipe-1567        node_0683            node_0468               22.602314468    11.990564515             100               0                 Open   ;
 new-pipe-1568        node_0683            node_2046               22.602314468     6.760362871             100               0                 Open   ;
 new-pipe-1569        node_0683            node_0785               22.602314468    6.0258642038             100               0                 Open   ;
 new-pipe-1570        node_0683            node_2197               22.602314468    4.7104958434             100               0                 Open   ;
 new-pipe-1571        node_0683            node_2354               22.602314468    4.7472210345             100               0                 Open   ;
 new-pipe-1572        node_2243            node_0468               22.602314468    1.9299586149             100               0                 Open   ;
 new-pipe-1573        node_2243            node_2046               22.602314468    1.0269717006             100               0                 Open   ;
 new-pipe-1574        node_2243            node_0785               22.602314468   0.91415876036             100               0                 Open   ;
 new-pipe-1575        node_2243            node_2197               22.602314468   0.71289028478             100               0                 Open   ;
 new-pipe-1576        node_2243            node_2354               22.602314468   0.72209342195             100               0                 Open   ;
 new-pipe-1577        node_0468            node_1971               22.602314468    1.2833092245             100               0                 Open   ;
 new-pipe-1578        node_1971            node_2046               22.602314468   0.82963983749             100               0                 Open   ;
 new-pipe-1579        node_1971            node_0785               22.602314468   0.74087213113             100               0                 Open   ;
 new-pipe-1580        node_1971            node_2197               22.602314468   0.58101895932             100               0                 Open   ;
 new-pipe-1581        node_1971            node_2354               22.602314468   0.58152580609             100               0                 Open   ;
 new-pipe-1585        node_1420            node_2485               22.602314468     10.69148723             100               0                 Open   ;
 new-pipe-1587        node_1420            node_2188               22.602314468    6.8215410087             100               0                 Open   ;
 new-pipe-1588        node_1420            node_2265               22.602314468    5.5805635755             100               0                 Open   ;
 new-pipe-1591        node_1202            node_2485               22.602314468    16.532121704             100               0                 Open   ;
 new-pipe-1593        node_1202            node_2188               22.602314468    14.335671238             100               0                 Open   ;
 new-pipe-1594        node_1202            node_2265               22.602314468    11.398341233             100               0                 Open   ;
 new-pipe-1598        node_1194            node_1420               22.602314468    9.8427644712             100               0                 Open   ;
 new-pipe-1599        node_1194            node_2485               22.602314468    10.520672954             100               0                 Open   ;
 new-pipe-1602        node_1194            node_2188               22.602314468    13.392631488             100               0                 Open   ;
 new-pipe-1603        node_1194            node_2265               22.602314468    10.453443905             100               0                 Open   ;
 new-pipe-1604        node_2113            node_1420               22.602314468    5.1028039399             100               0                 Open   ;
 new-pipe-1605        node_2113            node_2485               22.602314468    6.9334680283             100               0                 Open   ;
 new-pipe-1608        node_2113            node_2188               22.602314468    10.941289128             100               0                 Open   ;
 new-pipe-1609        node_2113            node_2265               22.602314468    8.4936633989             100               0                 Open   ;
 new-pipe-1610        node_1420            node_0837               22.602314468    6.0504335061             100               0                 Open   ;
 new-pipe-1611        node_2485            node_0837               22.602314468    8.2316676573             100               0                 Open   ;
 new-pipe-1614        node_0837            node_2188               22.602314468     13.14814179             100               0                 Open   ;
 new-pipe-1615        node_0837            node_2265               22.602314468     10.20515468             100               0                 Open   ;
 new-pipe-1616        node_1900            node_2188               22.602314468    40.675951993             100               0                 Open   ;
 new-pipe-1617        node_1900            node_2265               22.602314468    35.469093352             100               0                 Open   ;
 new-pipe-1618        node_1900            node_2485               22.602314468    26.840563692             100               0                 Open   ;
 new-pipe-1619        node_1900            node_1420               22.602314468    6.1430829666             100               0                 Open   ;
 new-pipe-1620        node_1900            node_1202               22.602314468    12.621582676             100               0                 Open   ;
 new-pipe-1621        node_1900            node_1194               22.602314468    11.122924989             100               0                 Open   ;
 new-pipe-1622        node_1900            node_2113               22.602314468    8.6424676626             100               0                 Open   ;
 new-pipe-1623        node_1900            node_0837               22.602314468    10.422502612             100               0                 Open   ;
 new-pipe-1624        node_1781            node_2188               22.602314468    3.0596041438             100               0                 Open   ;
 new-pipe-1625        node_1781            node_2265               22.602314468     2.665141426             100               0                 Open   ;
 new-pipe-1626        node_1781            node_2485               22.602314468    2.0547226611             100               0                 Open   ;
 new-pipe-1627        node_1781            node_1420               22.602314468   0.52950186982             100               0                 Open   ;
 new-pipe-1628        node_1781            node_1202               22.602314468    1.0453922571             100               0                 Open   ;
 new-pipe-1629        node_1781            node_1194               22.602314468   0.91451256354             100               0                 Open   ;
 new-pipe-1630        node_1781            node_2113               22.602314468   0.71869640819             100               0                 Open   ;
 new-pipe-1631        node_1781            node_0837               22.602314468   0.86505727027             100               0                 Open   ;
 new-pipe-1632        node_1876            node_2188               22.602314468    3.8140585616             100               0                 Open   ;
 new-pipe-1633        node_1876            node_2265               22.602314468    3.3234015912             100               0                 Open   ;
 new-pipe-1634        node_1876            node_2485               22.602314468    2.5480807416             100               0                 Open   ;
 new-pipe-1635        node_1876            node_1420               22.602314468   0.63946263995             100               0                 Open   ;
 new-pipe-1636        node_1876            node_1202               22.602314468    1.2718589886             100               0                 Open   ;
 new-pipe-1637        node_1876            node_1194               22.602314468     1.114320528             100               0                 Open   ;
 new-pipe-1638        node_1876            node_2113               22.602314468   0.87368695286             100               0                 Open   ;
 new-pipe-1639        node_1876            node_0837               22.602314468    1.0520163215             100               0                 Open   ;
 new-pipe-1640        node_2428            node_2485               22.602314468    43.141761551             100               0                 Open   ;
 new-pipe-1641        node_2428            node_1900               22.602314468    101.05409933             100               0                 Open   ;
 new-pipe-1642        node_2428            node_1781               22.602314468    7.6224534505             100               0                 Open   ;
 new-pipe-1643        node_2428            node_1876               22.602314468    9.4938120994             100               0                 Open   ;
 new-pipe-1644        node_2428            node_2188               22.602314468    45.130062276             100               0                 Open   ;
 new-pipe-1645        node_2428            node_2265               22.602314468    41.578358513             100               0                 Open   ;
 new-pipe-1646        node_2428            node_1420               22.602314468    19.974683694             100               0                 Open   ;
 new-pipe-1647        node_2428            node_1202               22.602314468    75.103155926             100               0                 Open   ;
 new-pipe-1648        node_2428            node_1194               22.602314468      48.8719805             100               0                 Open   ;
 new-pipe-1649        node_2428            node_2113               22.602314468    21.247282636             100               0                 Open   ;
 new-pipe-1650        node_2428            node_0837               22.602314468    23.881253117             100               0                 Open   ;

[PUMPS]
;ID                   Node1                Node2                Properties          

[VALVES]
;ID                   Node1                Node2                            Diameter Type              Setting           Minor Loss
 link_2214            node_0469            node_0468                        100 PRV               30             1.5   ;
 link_2312            node_0837            node_0836                        100 PRV               35             1.5   ;
 link_2602            node_1901            node_1900                        150 PRV               22             1.5   ;
 link_2605            node_0684            node_0683                         80 PSV                0             1.5   ;
 link_2606            node_1420            node_1421                         80 PSV                0             1.5   ;

[TAGS]
;type      name       tag       

[DEMANDS]
;ID        Demand     Pattern   

[STATUS]
;ID        Setting   

[PATTERNS]
;ID        Multipliers

DMA1_upper1 0.334100 0.276300 0.230400 0.194800 0.185200 0.175300
DMA1_upper1 0.183400 0.180400 0.161100 0.165400 0.170600 0.169500
DMA1_upper1 0.163200 0.171200 0.186700 0.207700 0.240200 0.276900
DMA1_upper1 0.316100 0.370600 0.468000 0.652900 0.876800 1.047900
DMA1_upper1 1.236200 1.421200 1.555700 1.665200 1.715700 1.649400
DMA1_upper1 1.554000 1.464300 1.357200 1.317000 1.304200 1.279400
DMA1_upper1 1.287700 1.284100 1.257900 1.291900 1.331800 1.300700
DMA1_upper1 1.233700 1.185500 1.115800 1.108400 1.137900 1.136800
DMA1_upper1 1.137600 1.101900 1.054600 1.041900 1.030400 0.985700
DMA1_upper1 0.982500 1.006300 1.001900 0.995500 0.990100 1.054200
DMA1_upper1 1.164500 1.235500 1.251100 1.297800 1.333500 1.342900
DMA1_upper1 1.406200 1.426100 1.452800 1.543400 1.592000 1.615100
DMA1_upper1 1.641600 1.630100 1.602800 1.560200 1.472900 1.466000
DMA1_upper1 1.477900 1.401400 1.335100 1.322100 1.312900 1.242700
DMA1_upper1 1.194000 1.207500 1.160700 1.053600 0.975100 0.922100
DMA1_upper1 0.842200 0.689900 0.565200 0.486500 0.418900 0.379300

DMA1_lower1 0.334100 0.276300 0.230400 0.194800 0.185200 0.175300
DMA1_lower1 0.183400 0.180400 0.161100 0.165400 0.170600 0.169500
DMA1_lower1 0.163200 0.171200 0.186700 0.207700 0.240200 0.276900
DMA1_lower1 0.316100 0.370600 0.468000 0.652900 0.876800 1.047900
DMA1_lower1 1.236200 1.421200 1.555700 1.665200 1.715700 1.649400
DMA1_lower1 1.554000 1.464300 1.357200 1.317000 1.304200 1.279400
DMA1_lower1 1.287700 1.284100 1.257900 1.291900 1.331800 1.300700
DMA1_lower1 1.233700 1.185500 1.115800 1.108400 1.137900 1.136800
DMA1_lower1 1.137600 1.101900 1.054600 1.041900 1.030400 0.985700
DMA1_lower1 0.982500 1.006300 1.001900 0.995500 0.990100 1.054200
DMA1_lower1 1.164500 1.235500 1.251100 1.297800 1.333500 1.342900
DMA1_lower1 1.406200 1.426100 1.452800 1.543400 1.592000 1.615100
DMA1_lower1 1.641600 1.630100 1.602800 1.560200 1.472900 1.466000
DMA1_lower1 1.477900 1.401400 1.335100 1.322100 1.312900 1.242700
DMA1_lower1 1.194000 1.207500 1.160700 1.053600 0.975100 0.922100
DMA1_lower1 0.842200 0.689900 0.565200 0.486500 0.418900 0.379300

DMA1_lower2 0.350700 0.308200 0.231800 0.232500 0.226800 0.211100
DMA1_lower2 0.206500 0.197300 0.182700 0.181600 0.180500 0.182300
DMA1_lower2 0.184100 0.184100 0.184000 0.184000 0.184000 0.234200
DMA1_lower2 0.265100 0.350400 0.454900 0.454700 0.682200 0.909800
DMA1_lower2 0.909500 0.909000 1.157800 1.406700 1.406200 1.405600
DMA1_lower2 1.405000 1.404400 1.404000 1.403900 1.419100 1.434300
DMA1_lower2 1.394000 1.471200 1.588700 1.628500 1.668400 1.542900
DMA1_lower2 1.336400 1.255400 1.181400 1.107400 1.107600 1.107800
DMA1_lower2 1.107900 1.178200 1.248400 1.190700 1.131200 1.129600
DMA1_lower2 1.129700 1.105300 1.080800 1.027200 1.012100 1.064800
DMA1_lower2 1.095300 1.161800 1.241700 1.271400 1.271300 1.271200
DMA1_lower2 1.271100 1.321300 1.496400 1.621200 1.620800 1.620500
DMA1_lower2 1.620300 1.620200 1.585600 1.603700 1.665700 1.657800
DMA1_lower2 1.563000 1.456400 1.334600 1.253400 1.251600 1.163900
DMA1_lower2 1.113500 1.206300 1.147800 0.952700 0.927100 0.930500
DMA1_lower2 0.816600 0.676500 0.530400 0.431300 0.425400 0.377000

DMA2_upper1 0.343800 0.329700 0.281400 0.243200 0.239800 0.246700
DMA2_upper1 0.219100 0.177400 0.153300 0.167500 0.198500 0.170900
DMA2_upper1 0.139900 0.153400 0.156800 0.157200 0.198600 0.243400
DMA2_upper1 0.273400 0.305500 0.340700 0.506200 0.732100 0.918000