[TITLE]


[JUNCTIONS]
;ID              	Elev        	Demand      	Pattern         
 node_0001       	37.125363   	0.04851     	DMA2_upper1     	;
 node_0002       	37.12       	0.02205     	DMA2_upper1     	;
 node_0003       	37.12       	0           	                	;
 node_0004       	84.344399   	0.00882     	DMA2_upper1     	;
 node_0005       	84.37       	0           	                	;
 node_0006       	84.37       	0           	                	;
 node_0007       	84.368661   	0.01323     	DMA2_upper1     	;
 node_0008       	84.37       	0           	                	;
 node_0009       	84.37       	0.00441     	DMA2_upper1     	;
 node_0010       	36.57       	0.0441      	DMA2_upper1     	;
 node_0011       	36.57       	0.01764     	DMA2_upper1     	;
 node_0012       	84.09       	0.00441     	DMA2_upper1     	;
 node_0013       	84.09       	0           	                	;
 node_0014       	84.062469   	0           	                	;
 node_0015       	83.607768   	0.00441     	DMA2_upper1     	;
 node_0016       	83.67       	0           	                	;
 node_0017       	83.67       	0           	                	;
 node_0018       	83.627718   	0           	                	;
 node_0019       	83.62       	0           	                	;
 node_0020       	83.62       	0.00441     	DMA2_upper1     	;
 node_0021       	83.44       	0           	                	;
 node_0022       	83.44       	0           	                	;
 node_0023       	83.950945   	0.03528     	DMA2_upper1     	;
 node_0024       	83.97       	0           	                	;
 node_0025       	83.97       	0           	                	;
 node_0026       	83.612368   	0.01764     	DMA2_upper1     	;
 node_0027       	83.405776   	0.00441     	DMA2_upper1     	;
 node_0028       	80.324288   	0.01764     	DMA2_upper1     	;
 node_0029       	42.387623   	0.05733     	DMA2_upper1     	;
 node_0030       	28.848125   	0.01323     	DMA2_upper1     	;
 node_0031       	28.45       	0           	                	;
 node_0032       	28.45       	0           	                	;
 node_0033       	42.233847   	0.01764     	DMA2_upper1     	;
 node_0034       	42.21       	0.198449    	DMA2_upper1     	;
 node_0035       	42.21       	0           	                	;
 node_0036       	42.21       	0           	                	;
 node_0037       	42.21       	0           	                	;
 node_0038       	37.472641   	0.05292     	DMA2_upper1     	;
 node_0039       	37.44       	0           	                	;
 node_0040       	37.44       	0           	                	;
 node_0041       	42.304933   	0.00441     	DMA2_upper1     	;
 node_0042       	42.44       	0.01323     	DMA2_upper1     	;
 node_0043       	42.44       	0           	                	;
 node_0044       	81.84       	0.01323     	DMA2_upper1     	;
 node_0045       	81.84       	0           	                	;
 node_0046       	45.35       	0           	                	;
 node_0047       	45.35       	0           	                	;
 node_0048       	81.824789   	0           	                	;
 node_0049       	83.32       	0           	                	;
 node_0050       	83.32       	0.03087     	DMA2_upper1     	;
 node_0051       	45.43       	0.083789    	DMA2_upper1     	;
 node_0052       	45.43       	0.00441     	DMA2_upper1     	;
 node_0053       	81.84       	0.01323     	DMA2_upper1     	;
 node_0054       	81.84       	0           	                	;
 node_0055       	83.295776   	0.01764     	DMA2_upper1     	;
 node_0056       	45.395528   	0.00441     	DMA2_upper1     	;
 node_0057       	81.84       	0.00441     	DMA2_upper1     	;
 node_0058       	81.84       	0           	                	;
 node_0059       	83.32       	0.01764     	DMA2_upper1     	;
 node_0060       	83.32       	0           	                	;
 node_0061       	82.25       	0.00441     	DMA2_upper1     	;
 node_0062       	82.25       	0           	                	;
 node_0063       	82.234288   	0.00882     	DMA2_upper1     	;
 node_0064       	14.73       	0.01323     	DMA2_upper1     	;
 node_0065       	14.73       	0.00441     	DMA2_upper1     	;
 node_0066       	83.18       	0           	                	;
 node_0067       	83.18       	0.01323     	DMA2_upper1     	;
 node_0068       	14.83       	0           	                	;
 node_0069       	14.83       	0           	                	;
 node_0070       	14.934464   	0           	                	;
 node_0071       	83.076583   	0           	                	;
 node_0072       	83.1        	0.00441     	DMA2_upper1     	;
 node_0073       	83.1        	0           	                	;
 node_0074       	83.1        	0.02646     	DMA2_upper1     	;
 node_0075       	83.1        	0           	                	;
 node_0076       	83.175992   	0           	                	;
 node_0077       	83.21       	0.01764     	DMA2_upper1     	;
 node_0078       	83.21       	0           	                	;
 node_0079       	43.43       	0.00441     	DMA2_upper1     	;
 node_0080       	43.43       	0.01764     	DMA2_upper1     	;
 node_0081       	44.47       	0           	                	;
 node_0082       	44.47       	0           	                	;
 node_0083       	44.503564   	0.02646     	DMA2_upper1     	;
 node_0084       	44.61       	0.00441     	DMA2_upper1     	;
 node_0085       	44.61       	0           	                	;
 node_0086       	25.93       	0           	                	;
 node_0087       	45.613615   	0.00441     	DMA2_upper1     	;
 node_0088       	45.67       	0.02646     	DMA2_upper1     	;
 node_0089       	45.67       	0           	                	;
 node_0090       	16.790665   	0.02646     	DMA2_upper1     	;
 node_0091       	82.49       	0           	                	;
 node_0092       	82.49       	0           	                	;
 node_0093       	16.68       	0           	                	;
 node_0094       	16.68       	0           	                	;
 node_0095       	82.454624   	0.01323     	DMA2_upper1     	;
 node_0096       	25.494569   	0           	                	;
 node_0097       	45.9        	0           	                	;
 node_0098       	45.9        	0           	                	;
 node_0099       	45.24       	0           	                	;
 node_0100       	45.24       	0           	                	;
 node_0101       	37.158236   	0           	                	;
 node_0102       	24.85       	0           	                	;
 node_0103       	24.85       	0           	                	;
 node_0104       	45.328371   	0           	                	;
 node_0105       	74.6        	0           	                	;
 node_0106       	74.6        	0.00441     	DMA2_upper1     	;
 node_0107       	25.219164   	0           	                	;
 node_0108       	74.61816    	0.02205     	DMA2_upper1     	;
 node_0109       	45.64       	0           	                	;
 node_0110       	45.64       	0           	                	;
 node_0111       	45.379492   	0.01323     	DMA2_upper1     	;
 node_0112       	45.38       	0           	                	;
 node_0113       	45.38       	0           	                	;
 node_0114       	24.96       	0           	                	;
 node_0115       	24.96       	0           	                	;
 node_0116       	25.299657   	0           	                	;
 node_0117       	25.1        	0           	                	;
 node_0118       	25.1        	0           	                	;
 node_0119       	25.38       	0           	                	;
 node_0120       	25.38       	0           	                	;
 node_0121       	25.43       	0           	                	;
 node_0122       	25.43       	0           	                	;
 node_0123       	25.56       	0           	                	;
 node_0124       	25.56       	0           	                	;
 node_0125       	26.4        	0           	                	;
 node_0126       	26.4        	0           	                	;
 node_0127       	23.551      	0           	                	;
 node_0128       	23.551      	0           	                	;
 node_0129       	82.61       	0.01764     	DMA2_upper1     	;
 node_0130       	82.61       	0           	                	;
 node_0131       	15.44       	0           	                	;
 node_0132       	15.44       	0.00441     	DMA2_upper1     	;
 node_0133       	82.522552   	0           	                	;
 node_0134       	27.308057   	0           	                	;
 node_0135       	82.57       	0.00441     	DMA2_upper1     	;
 node_0136       	82.57       	0           	                	;
 node_0137       	27.56       	0           	                	;
 node_0138       	42          	0           	                	;
 node_0139       	42          	0.01764     	DMA2_upper1     	;
 node_0140       	27.670984   	0           	                	;
 node_0141       	27.669973   	0           	                	;
 node_0142       	82.57       	0           	                	;
 node_0143       	82.57       	0           	                	;
 node_0144       	15.870264   	0           	                	;
 node_0145       	16.034998   	0.00441     	DMA2_upper1     	;
 node_0146       	27.04       	0           	                	;
 node_0147       	27.04       	0           	                	;
 node_0148       	28.2        	0           	                	;
 node_0149       	82.490259   	0.01323     	DMA2_upper1     	;
 node_0150       	82.53       	0.01323     	DMA2_upper1     	;
 node_0151       	82.53       	0           	                	;
 node_0152       	15.66       	0           	                	;
 node_0153       	15.66       	0           	                	;
 node_0154       	28.121197   	0           	                	;
 node_0155       	40.1        	0           	                	;
 node_0156       	40.1        	0           	                	;
 node_0157       	29.13       	0           	                	;
 node_0158       	29.13       	0           	                	;
 node_0159       	40.214785   	0.00441     	DMA2_upper1     	;
 node_0160       	15.917638   	0           	                	;
 node_0161       	27.8295     	0           	                	;
 node_0162       	16.19       	0           	                	;
 node_0163       	16.19       	0           	                	;
 node_0164       	40.23       	0           	                	;
 node_0165       	40.23       	0           	                	;
 node_0166       	15.98       	0.00441     	DMA2_upper1     	;
 node_0167       	15.98       	0           	                	;
 node_0168       	27.461259   	0           	                	;
 node_0169       	27.42       	0           	                	;
 node_0170       	27.42       	0           	                	;
 node_0171       	27.42       	0           	                	;
 node_0172       	27.42       	0           	                	;
 node_0173       	30.089888   	0.01323     	DMA2_upper1     	;
 node_0174       	30.24       	0           	                	;
 node_0175       	30.24       	0           	                	;
 node_0176       	73.652562   	0.01764     	DMA2_upper1     	;
 node_0177       	73.63       	0           	                	;
 node_0178       	73.63       	0           	                	;
 node_0179       	50.54       	0           	                	;
 node_0180       	50.54       	0.02205     	DMA2_upper1     	;
 node_0181       	77.61       	0.05733     	DMA2_upper1     	;
 node_0182       	77.61       	0.00882     	DMA2_upper1     	;
 node_0183       	77.674321   	0.00441     	DMA2_upper1     	;
 node_0184       	77.89       	0           	                	;
 node_0185       	77.89       	0           	                	;
 node_0186       	50.507073   	0.01323     	DMA2_upper1     	;
 node_0187       	71.41       	0           	                	;
 node_0188       	71.41       	0           	                	;
 node_0189       	77.61       	0.04851     	DMA2_upper1     	;
 node_0190       	77.61       	0           	                	;
 node_0191       	71.437288   	0.02205     	DMA2_upper1     	;
 node_0192       	50.11       	0           	                	;
 node_0193       	50.11       	0.01764     	DMA2_upper1     	;
 node_0194       	50.096794   	0.01764     	DMA2_upper1     	;
 node_0195       	42.076052   	0.02646     	DMA2_upper1     	;
 node_0196       	44.4        	0           	                	;
 node_0197       	44.4        	0.01323     	DMA2_upper1     	;
 node_0198       	46.1        	0           	                	;
 node_0199       	46.1        	0.00441     	DMA2_upper1     	;
 node_0200       	46.089932   	0           	                	;
 node_0201       	42.757023   	0           	                	;
 node_0202       	50.05       	0           	                	;
 node_0203       	50.05       	0.02205     	DMA2_upper1     	;
 node_0204       	50.21       	0           	                	;
 node_0205       	50.21       	0           	                	;
 node_0206       	50.045341   	0.00441     	DMA2_upper1     	;
 node_0207       	77.68       	0.00882     	DMA2_upper1     	;
 node_0208       	77.68       	0           	                	;
 node_0209       	50.209822   	0           	                	;
 node_0210       	77.513405   	0           	                	;
 node_0211       	77.68       	0           	                	;
 node_0212       	77.68       	0           	                	;
 node_0213       	50.26       	0           	                	;
 node_0214       	50.26       	0.02646     	DMA2_upper1     	;
 node_0215       	77.2        	0.070559    	DMA2_upper1     	;
 node_0216       	77.2        	0           	                	;
 node_0217       	50.150615   	0           	                	;
 node_0218       	50.18       	0.01323     	DMA2_upper1     	;
 node_0219       	50.18       	0           	                	;
 node_0220       	70.16       	0           	                	;
 node_0221       	70.16       	0           	                	;
 node_0222       	49.75       	0           	                	;
 node_0223       	49.75       	0           	                	;
 node_0224       	70.188419   	0           	                	;
 node_0225       	70.329288   	0.03087     	DMA2_upper1     	;
 node_0226       	49.722375   	0.02646     	DMA2_upper1     	;
 node_0227       	70.16       	0           	                	;
 node_0228       	70.16       	0           	                	;
 node_0229       	47.35       	0           	                	;
 node_0230       	47.35       	0.00441     	DMA2_upper1     	;
 node_0231       	47.260559   	0           	                	;
 node_0232       	67.66       	0.03087     	DMA2_upper1     	;
 node_0233       	67.66       	0           	                	;
 node_0234       	67.673166   	0           	                	;
 node_0235       	67.66       	0           	                	;
 node_0236       	67.66       	0           	                	;
 node_0237       	46.84       	0.00882     	DMA2_upper1     	;
 node_0238       	46.84       	0           	                	;
 node_0239       	46.818363   	0           	                	;
 node_0240       	68.0396     	0.02205     	DMA2_upper1     	;
 node_0241       	71.6        	0.04851     	DMA2_upper1     	;
 node_0242       	71.6        	0           	                	;
 node_0243       	71.51       	0.01323     	DMA2_upper1     	;
 node_0244       	71.51       	0.00441     	DMA2_upper1     	;
 node_0245       	44.468665   	0           	                	;
 node_0246       	71.562474   	0           	                	;
 node_0247       	71.6        	0           	                	;
 node_0248       	71.6        	0.00882     	DMA2_upper1     	;
 node_0249       	44.34       	0           	                	;
 node_0250       	44.34       	0           	                	;
 node_0251       	44.34       	0           	                	;
 node_0252       	44.34       	0           	                	;
 node_0253       	71.110155   	0.03528     	DMA2_upper1     	;
 node_0254       	72.174677   	0.02646     	DMA2_upper1     	;
 node_0255       	71.08       	0           	                	;
 node_0256       	71.08       	0.00441     	DMA2_upper1     	;
 node_0257       	72.16       	0.00441     	DMA2_upper1     	;
 node_0258       	72.16       	0           	                	;
 node_0259       	71.863694   	0           	                	;
 node_0260       	71.85       	0           	                	;
 node_0261       	71.85       	0           	                	;
 node_0262       	34.720063   	0           	                	;
 node_0263       	72.361464   	0.0441      	DMA2_upper1     	;
 node_0264       	65.955439   	0           	                	;
 node_0265       	72.33       	0           	                	;
 node_0266       	72.33       	0           	                	;
 node_0267       	72.329416   	0.00882     	DMA2_upper1     	;
 node_0268       	65.96       	0.00882     	DMA2_upper1     	;
 node_0269       	72.329635   	0.02205     	DMA2_upper1     	;
 node_0270       	72.33       	0           	                	;
 node_0271       	72.33       	0.01323     	DMA2_upper1     	;
 node_0272       	65.956867   	0           	                	;
 node_0273       	65.96       	0           	                	;
 node_0274       	65.96       	0           	                	;
 node_0275       	72.27       	0.01764     	DMA2_upper1     	;
 node_0276       	72.27       	0           	                	;
 node_0277       	65.96       	0           	                	;
 node_0278       	61.21       	0           	                	;
 node_0279       	61.19       	0           	                	;
 node_0280       	65.918567   	0           	                	;
 node_0281       	65.9        	0           	                	;
 node_0282       	65.9        	0           	                	;
 node_0283       	65.901092   	0           	                	;
 node_0284       	65.9        	0           	                	;
 node_0285       	65.9        	0           	                	;
 node_0286       	65.92       	0           	                	;
 node_0287       	65.92       	0           	                	;
 node_0288       	46.050459   	0.01764     	DMA2_upper1     	;
 node_0289       	65.933307   	0.01323     	DMA2_upper1     	;
 node_0290       	61.587658   	0           	                	;
 node_0291       	61.49       	0           	                	;
 node_0292       	46.012498   	0           	                	;
 node_0293       	45.95       	0           	                	;
 node_0294       	45.95       	0           	                	;
 node_0295       	46.21       	0           	                	;
 node_0296       	46.21       	0           	                	;
 node_0297       	46.186124   	0           	                	;
 node_0298       	62.157696   	0           	                	;
 node_0299       	46.05       	0           	                	;
 node_0300       	46.05       	0           	                	;
 node_0301       	72.35       	0.0441      	DMA2_upper1     	;
 node_0302       	72.35       	0           	                	;
 node_0303       	50.867604   	0.02646     	DMA2_upper1     	;
 node_0304       	46.089616   	0.00441     	DMA2_upper1     	;
 node_0305       	35.73       	0           	                	;
 node_0306       	35.73       	0           	                	;
 node_0307       	72.396093   	0.03528     	DMA2_upper1     	;
 node_0308       	50.93       	0           	                	;
 node_0309       	50.93       	0.01323     	DMA2_upper1     	;
 node_0310       	46.51       	0           	                	;
 node_0311       	46.51       	0.00441     	DMA2_upper1     	;
 node_0312       	46.549022   	0           	                	;
 node_0313       	46.56       	0           	                	;
 node_0314       	46.56       	0           	                	;
 node_0315       	36.32       	0           	                	;
 node_0316       	36.32       	0           	                	;
 node_0317       	46.64       	0           	                	;
 node_0318       	61.182369   	0           	                	;
 node_0319       	36.32       	0           	                	;
 node_0320       	36.32       	0           	                	;
 node_0321       	61.18       	0           	                	;
 node_0322       	61.21       	0           	                	;
 node_0323       	61.21       	0           	                	;
 node_0324       	46.82       	0           	                	;
 node_0325       	46.794787   	0           	                	;
 node_0326       	61.16       	0           	                	;
 node_0327       	61.16       	0           	                	;
 node_0328       	61.146522   	0           	                	;
 node_0329       	46.93       	0           	                	;
 node_0330       	46.93       	0           	                	;
 node_0331       	46.90708    	0           	                	;
 node_0332       	73.18       	0.00882     	DMA2_upper1     	;
 node_0333       	73.18       	0           	                	;
 node_0334       	73.180132   	0           	                	;
 node_0335       	73.36       	0.00441     	DMA2_upper1     	;
 node_0336       	73.36       	0.00882     	DMA2_upper1     	;
 node_0337       	72.99       	0.00882     	DMA2_upper1     	;
 node_0338       	72.99       	0           	                	;
 node_0339       	73.39       	0           	                	;
 node_0340       	73.39       	0           	                	;
 node_0341       	73.385719   	0.04851     	DMA2_upper1     	;
 node_0342       	72.82       	0           	                	;
 node_0343       	72.82       	0.00882     	DMA2_upper1     	;
 node_0344       	66.04       	0           	                	;
 node_0345       	66.04       	0           	                	;
 node_0346       	48.318246   	0.0753      	DMA1_upper1     	;
 node_0347       	72.85078    	0.00882     	DMA2_upper1     	;
 node_0348       	66.05854    	0           	                	;
 node_0349       	60.348808   	0           	                	;
 node_0350       	66.06       	0           	                	;
 node_0351       	66.06       	0           	                	;
 node_0352       	66.06       	0           	                	;
 node_0353       	66.06       	0           	                	;
 node_0354       	46.37       	0           	                	;
 node_0355       	47.74       	0           	                	;
 node_0356       	47.74       	0.00441     	DMA2_upper1     	;
 node_0357       	73.201179   	0.00882     	DMA2_upper1     	;
 node_0358       	50.910664   	0.00882     	DMA2_upper1     	;
 node_0359       	50.89       	0           	                	;
 node_0360       	50.89       	0           	                	;
 node_0361       	50.861698   	0.00882     	DMA2_upper1     	;
 node_0362       	50.92       	0           	                	;
 node_0363       	50.92       	0.01764     	DMA2_upper1     	;
 node_0364       	47.74       	0           	                	;
 node_0365       	47.74       	0           	                	;
 node_0366       	60.79       	0           	                	;
 node_0367       	59.52       	0           	                	;
 node_0368       	58.7        	0           	                	;
 node_0369       	58.25       	0           	                	;
 node_0370       	59.022158   	0           	                	;
 node_0371       	50.94       	0.01323     	DMA2_upper1     	;
 node_0372       	50.94       	0           	                	;
 node_0373       	50.927029   	0.00441     	DMA2_upper1     	;
 node_0374       	66.05       	0           	                	;
 node_0375       	66.05       	0           	                	;
 node_0376       	66.05       	0           	                	;
 node_0377       	66.05       	0           	                	;
 node_0378       	73.058124   	0.00882     	DMA2_upper1     	;
 node_0379       	72.07       	0.03528     	DMA2_upper1     	;
 node_0380       	72.07       	0           	                	;
 node_0381       	73.05       	0           	                	;
 node_0382       	73.05       	0           	                	;
 node_0383       	72.07       	0.0441      	DMA2_upper1     	;
 node_0384       	72.07       	0           	                	;
 node_0385       	66.05       	0           	                	;
 node_0386       	66.05       	0           	                	;
 node_0387       	73.064672   	0.02646     	DMA2_upper1     	;
 node_0388       	72.093517   	0.01764     	DMA2_upper1     	;
 node_0389       	69.95       	0           	                	;
 node_0390       	37.735112   	0.04851     	DMA2_upper1     	;
 node_0391       	50.89384    	0.02205     	DMA2_upper1     	;
 node_0392       	73.32       	0.01764     	DMA2_upper1     	;
 node_0393       	73.32       	0           	                	;
 node_0394       	73.34046    	0.02646     	DMA2_upper1     	;
 node_0395       	73.329985   	0           	                	;
 node_0396       	73.37       	0.01764     	DMA2_upper1     	;
 node_0397       	73.37       	0           	                	;
 node_0398       	50.87       	0           	                	;
 node_0399       	50.87       	0.01764     	DMA2_upper1     	;
 node_0400       	73.3        	0.00882     	DMA2_upper1     	;
 node_0401       	73.3        	0           	                	;
 node_0402       	66.22       	0.00441     	DMA2_upper1     	;
 node_0403       	66.22       	0           	                	;
 node_0404       	66.237974   	0           	                	;
 node_0405       	66.25       	0.00441     	DMA2_upper1     	;
 node_0406       	66.25       	0           	                	;
 node_0407       	72.9983     	0.03087     	DMA2_upper1     	;
 node_0408       	72.99       	0           	                	;
 node_0409       	72.99       	0           	                	;
 node_0410       	70.166316   	0           	                	;
 node_0411       	66.27       	0           	                	;
 node_0412       	66.27       	0           	                	;
 node_0413       	66.233097   	0.00441     	DMA2_upper1     	;
 node_0414       	73.06       	0           	                	;
 node_0415       	73.06       	0.00441     	DMA2_upper1     	;
 node_0416       	73.063539   	0.03528     	DMA2_upper1     	;
 node_0417       	50.546072   	0           	                	;
 node_0418       	73.85       	0.00441     	DMA2_upper1     	;
 node_0419       	73.85       	0           	                	;
 node_0420       	50.58       	0           	                	;
 node_0421       	50.58       	0           	                	;
 node_0422       	73.843952   	0.03087     	DMA2_upper1     	;
 node_0423       	49.22       	0           	                	;
 node_0424       	49.208401   	0.00441     	DMA2_upper1     	;
 node_0425       	49.19011    	0           	                	;
 node_0426       	45.043243   	0.091153    	DMA1_upper1     	;
 node_0427       	49.48       	0.00882     	DMA2_upper1     	;
 node_0428       	49.48       	0           	                	;
 node_0429       	49.48       	0.02646     	DMA2_upper1     	;
 node_0430       	49.48       	0           	                	;
 node_0431       	73.64       	0           	                	;
 node_0432       	73.64       	0.01323     	DMA2_upper1     	;
 node_0433       	73.642991   	0           	                	;
 node_0434       	73.148305   	0.02205     	DMA2_upper1     	;
 node_0435       	73.17       	0           	                	;
 node_0436       	73.17       	0.00882     	DMA2_upper1     	;
 node_0437       	73.706918   	0           	                	;
 node_0438       	49.007289   	0           	                	;
 node_0439       	73.69       	0.01764     	DMA2_upper1     	;
 node_0440       	73.69       	0           	                	;
 node_0441       	73.78       	0           	                	;
 node_0442       	73.78       	0           	                	;
 node_0443       	49.030899   	0.011889    	DMA1_upper1     	;
 node_0444       	73.51       	0           	                	;
 node_0445       	73.51       	0           	                	;
 node_0446       	73.581247   	0           	                	;
 node_0447       	73.59       	0           	                	;
 node_0448       	73.59       	0           	                	;
 node_0449       	73.580475   	0           	                	;
 node_0450       	73.638373   	0.01764     	DMA2_upper1     	;
 node_0451       	73.67       	0           	                	;
 node_0452       	73.67       	0           	                	;
 node_0453       	73.92       	0.01323     	DMA2_upper1     	;
 node_0454       	39.24       	0           	                	;
 node_0455       	39.24       	0           	                	;
 node_0456       	73.640901   	0           	                	;
 node_0457       	73.624933   	0           	                	;
 node_0458       	72.93       	0           	                	;
 node_0459       	72.93       	0           	                	;
 node_0460       	73.701955   	0           	                	;
 node_0461       	73.67       	0           	                	;
 node_0462       	73.67       	0           	                	;
 node_0463       	73.67       	0           	                	;
 node_0464       	73.67       	0           	                	;
 node_0465       	73.614591   	0           	                	;
 node_0466       	73.75       	0           	                	;
 node_0467       	73.75       	0           	                	;