; Filename: Networks/BWFLnet_modified.inp
; WNTR: 0.4.2
; Created: 2024-04-18 03:11:43
[TITLE]

[JUNCTIONS]
;ID                      Elevation       Demand Pattern                 
 node_0001                  37.125363         0.05733 DMA2_upper1                ;
 node_0002                      37.12         0.02205 DMA2_upper1                ;
 node_0003                      37.12               0                            ;
 node_0010                      36.57          0.0441 DMA2_upper1                ;
 node_0011                      36.57         0.01764 DMA2_upper1                ;
 node_0028                  80.324288         0.01764 DMA2_upper1                ;
 node_0029                  42.387623         0.06615 DMA2_upper1                ;
 node_0030                  28.848125         0.05733 DMA2_upper1                ;
 node_0031                      28.45               0                            ;
 node_0032                      28.45               0                            ;
 node_0033                  42.233847         0.03528 DMA2_upper1                ;
 node_0034                      42.21        0.198449 DMA2_upper1                ;
 node_0035                      42.21               0                            ;
 node_0036                      42.21               0                            ;
 node_0037                      42.21               0                            ;
 node_0038                  37.472641         0.05292 DMA2_upper1                ;
 node_0039                      37.44               0                            ;
 node_0040                      37.44               0                            ;
 node_0041                  42.304933         0.00441 DMA2_upper1                ;
 node_0042                      42.44         0.01323 DMA2_upper1                ;
 node_0043                      42.44               0                            ;
 node_0046                      45.35               0                            ;
 node_0047                      45.35               0                            ;
 node_0048                  81.824789         0.12789                            ;
 node_0049                      83.32               0                            ;
 node_0050                      83.32         0.03087 DMA2_upper1                ;
 node_0051                      45.43        0.083789 DMA2_upper1                ;
 node_0052                      45.43         0.00441 DMA2_upper1                ;
 node_0053                      81.84         0.01323 DMA2_upper1                ;
 node_0054                      81.84               0                            ;
 node_0055                  83.295776         0.01764 DMA2_upper1                ;
 node_0056                  45.395528         0.00441 DMA2_upper1                ;
 node_0057                      81.84         0.00441 DMA2_upper1                ;
 node_0058                      81.84               0                            ;
 node_0059                      83.32         0.01764 DMA2_upper1                ;
 node_0060                      83.32               0                            ;
 node_0063                  82.234288         0.02646 DMA2_upper1                ;
 node_0064                      14.73         0.01323 DMA2_upper1                ;
 node_0065                      14.73         0.00441 DMA2_upper1                ;
 node_0068                      14.83               0                            ;
 node_0069                      14.83               0                            ;
 node_0070                  14.934464               0                            ;
 node_0071                  83.076583               0                            ;
 node_0072                       83.1         0.00441 DMA2_upper1                ;
 node_0073                       83.1               0                            ;
 node_0074                       83.1         0.02646 DMA2_upper1                ;
 node_0075                       83.1               0                            ;
 node_0076                  83.175992         0.09702                            ;
 node_0077                      83.21         0.01764 DMA2_upper1                ;
 node_0078                      83.21               0                            ;
 node_0079                      43.43         0.00441 DMA2_upper1                ;
 node_0080                      43.43         0.01764 DMA2_upper1                ;
 node_0083                  44.503564         0.07938 DMA2_upper1                ;
 node_0084                      44.61         0.00441 DMA2_upper1                ;
 node_0085                      44.61               0                            ;
 node_0087                  45.613615         0.03087 DMA2_upper1                ;
 node_0088                      45.67         0.02646 DMA2_upper1                ;
 node_0089                      45.67               0                            ;
 node_0096                  25.494569               0                            ;
 node_0099                      45.24               0                            ;
 node_0100                      45.24               0                            ;
 node_0101                  37.158236               0                            ;
 node_0102                      24.85               0                            ;
 node_0103                      24.85               0                            ;
 node_0104                  45.328371               0                            ;
 node_0107                  25.219164               0                            ;
 node_0108                   74.61816         0.03969 DMA2_upper1                ;
 node_0109                      45.64               0                            ;
 node_0110                      45.64               0                            ;
 node_0111                  45.379492         0.01323 DMA2_upper1                ;
 node_0112                      45.38               0                            ;
 node_0113                      45.38               0                            ;
 node_0114                      24.96               0                            ;
 node_0115                      24.96               0                            ;
 node_0116                  25.299657               0                            ;
 node_0117                       25.1               0                            ;
 node_0118                       25.1               0                            ;
 node_0119                      25.38               0                            ;
 node_0120                      25.38               0                            ;
 node_0121                      25.43               0                            ;
 node_0122                      25.43               0                            ;
 node_0123                      25.56               0                            ;
 node_0124                      25.56               0                            ;
 node_0125                       26.4               0                            ;
 node_0126                       26.4               0                            ;
 node_0127                     23.551               0                            ;
 node_0128                     23.551               0                            ;
 node_0129                      82.61         0.01764 DMA2_upper1                ;
 node_0130                      82.61               0                            ;
 node_0133                  82.522552               0                            ;
 node_0134                  27.308057               0                            ;
 node_0135                      82.57         0.00441 DMA2_upper1                ;
 node_0136                      82.57               0                            ;
 node_0138                         42               0                            ;
 node_0139                         42         0.01764 DMA2_upper1                ;
 node_0140                  27.670984               0                            ;
 node_0141                  27.669973               0                            ;
 node_0142                      82.57               0                            ;
 node_0143                      82.57               0                            ;
 node_0144                  15.870264          0.0441                            ;
 node_0145                  16.034998         0.09702 DMA2_upper1                ;
 node_0146                      27.04               0                            ;
 node_0147                      27.04               0                            ;
 node_0149                  82.490259         0.06615 DMA2_upper1                ;
 node_0152                      15.66               0                            ;
 node_0153                      15.66               0                            ;
 node_0154                  28.121197               0                            ;
 node_0155                       40.1               0                            ;
 node_0156                       40.1               0                            ;
 node_0157                      29.13               0                            ;
 node_0158                      29.13               0                            ;
 node_0159                  40.214785         0.00441 DMA2_upper1                ;
 node_0160                  15.917638               0                            ;
 node_0161                    27.8295               0                            ;
 node_0162                      16.19               0                            ;
 node_0163                      16.19               0                            ;
 node_0164                      40.23               0                            ;
 node_0165                      40.23               0                            ;
 node_0168                  27.461259               0                            ;
 node_0169                      27.42               0                            ;
 node_0170                      27.42               0                            ;
 node_0171                      27.42               0                            ;
 node_0172                      27.42               0                            ;
 node_0173                  30.089888         0.01323 DMA2_upper1                ;
 node_0174                      30.24               0                            ;
 node_0175                      30.24               0                            ;
 node_0181                      77.61         0.05733 DMA2_upper1                ;
 node_0182                      77.61         0.00882 DMA2_upper1                ;
 node_0183                  77.674321         0.00441 DMA2_upper1                ;
 node_0184                      77.89               0                            ;
 node_0185                      77.89               0                            ;
 node_0189                      77.61         0.04851 DMA2_upper1                ;
 node_0190                      77.61               0                            ;
 node_0191                  71.437288         0.09702 DMA2_upper1                ;
 node_0195                  42.076052         0.02646 DMA2_upper1                ;
 node_0201                  42.757023               0                            ;
 node_0207                      77.68         0.00882 DMA2_upper1                ;
 node_0208                      77.68               0                            ;
 node_0210                  77.513405               0                            ;
 node_0211                      77.68               0                            ;
 node_0212                      77.68               0                            ;
 node_0215                       77.2        0.070559 DMA2_upper1                ;
 node_0216                       77.2               0                            ;
 node_0220                      70.16               0                            ;
 node_0221                      70.16               0                            ;
 node_0224                  70.188419         0.62181                            ;
 node_0225                  70.329288         0.03087 DMA2_upper1                ;
 node_0226                  49.722375          0.3087 DMA2_upper1                ;
 node_0241                       71.6         0.04851 DMA2_upper1                ;
 node_0242                       71.6               0                            ;
 node_0243                      71.51         0.01323 DMA2_upper1                ;
 node_0244                      71.51         0.00441 DMA2_upper1                ;
 node_0245                  44.468665               0                            ;
 node_0246                  71.562474               0                            ;
 node_0247                       71.6               0                            ;
 node_0248                       71.6         0.00882 DMA2_upper1                ;
 node_0254                  72.174677         0.06615 DMA2_upper1                ;
 node_0262                  34.720063               0                            ;
 node_0263                  72.361464         0.38367 DMA2_upper1                ;
 node_0278                      61.21               0                            ;
 node_0279                      61.19               0                            ;
 node_0288                  46.050459         0.01764 DMA2_upper1                ;
 node_0289                  65.933307         0.02205 DMA2_upper1                ;
 node_0290                  61.587658               0                            ;
 node_0291                      61.49               0                            ;
 node_0292                  46.012498         0.00441                            ;
 node_0297                  46.186124         0.14994                            ;
 node_0298                  62.157696               0                            ;
 node_0301                      72.35          0.0441 DMA2_upper1                ;
 node_0302                      72.35               0                            ;
 node_0305                      35.73               0                            ;
 node_0306                      35.73               0                            ;
 node_0307                  72.396093         0.03528 DMA2_upper1                ;
 node_0315                      36.32               0                            ;
 node_0316                      36.32               0                            ;
 node_0318                  61.182369               0                            ;
 node_0319                      36.32               0                            ;
 node_0320                      36.32               0                            ;
 node_0322                      61.21               0                            ;
 node_0323                      61.21               0                            ;
 node_0326                      61.16               0                            ;
 node_0327                      61.16               0                            ;
 node_0328                  61.146522               0                            ;
 node_0331                   46.90708               0                            ;
 node_0332                      73.18         0.00882 DMA2_upper1                ;
 node_0333                      73.18               0                            ;
 node_0334                  73.180132               0                            ;
 node_0335                      73.36         0.00441 DMA2_upper1                ;
 node_0336                      73.36         0.00882 DMA2_upper1                ;
 node_0337                      72.99         0.00882 DMA2_upper1                ;
 node_0338                      72.99               0                            ;
 node_0341                  73.385719         0.06615 DMA2_upper1                ;
 node_0344                      66.04               0                            ;
 node_0345                      66.04               0                            ;
 node_0346                  48.318246          0.0753 DMA1_upper1                ;
 node_0348                   66.05854               0                            ;
 node_0349                  60.348808               0                            ;
 node_0350                      66.06               0                            ;
 node_0351                      66.06               0                            ;
 node_0352                      66.06               0                            ;
 node_0353                      66.06               0                            ;
 node_0354                      46.37               0                            ;
 node_0355                      47.74               0                            ;
 node_0356                      47.74         0.00441 DMA2_upper1                ;
 node_0361                  50.861698         0.25578 DMA2_upper1                ;
 node_0364                      47.74               0                            ;
 node_0365                      47.74               0                            ;
 node_0366                      60.79               0                            ;
 node_0368                       58.7               0                            ;
 node_0370                  59.022158               0                            ;
 node_0374                      66.05               0                            ;
 node_0375                      66.05               0                            ;
 node_0376                      66.05               0                            ;
 node_0377                      66.05               0                            ;
 node_0379                      72.07         0.03528 DMA2_upper1                ;
 node_0380                      72.07               0                            ;
 node_0383                      72.07          0.0441 DMA2_upper1                ;
 node_0384                      72.07               0                            ;
 node_0385                      66.05               0                            ;
 node_0386                      66.05               0                            ;
 node_0388                  72.093517         0.01764 DMA2_upper1                ;
 node_0402                      66.22         0.00441 DMA2_upper1                ;
 node_0403                      66.22               0                            ;
 node_0404                  66.237974               0                            ;
 node_0405                      66.25         0.00441 DMA2_upper1                ;
 node_0406                      66.25               0                            ;
 node_0407                    72.9983         0.05733 DMA2_upper1                ;
 node_0410                  70.166316               0                            ;
 node_0411                      66.27               0                            ;
 node_0412                      66.27               0                            ;
 node_0413                  66.233097         0.00441 DMA2_upper1                ;
 node_0416                  73.063539         0.06615 DMA2_upper1                ;
 node_0424                  49.208401         0.00441 DMA2_upper1                ;
 node_0425                   49.19011               0                            ;
 node_0426                  45.043243        0.091153 DMA1_upper1                ;
 node_0427                      49.48         0.00882 DMA2_upper1                ;
 node_0428                      49.48               0                            ;
 node_0429                      49.48         0.02646 DMA2_upper1                ;
 node_0430                      49.48               0                            ;
 node_0438                  49.007289        0.003963                            ;
 node_0443                  49.030899        0.214011 DMA1_upper1                ;
 node_0444                      73.51               0                            ;
 node_0445                      73.51               0                            ;
 node_0446                  73.581247               0                            ;
 node_0447                      73.59               0                            ;
 node_0448                      73.59               0                            ;
 node_0449                  73.580475               0                            ;
 node_0454                      39.24               0                            ;
 node_0455                      39.24               0                            ;
 node_0456                  73.640901               0                            ;
 node_0457                  73.624933               0                            ;
 node_0458                      72.93               0                            ;
 node_0459                      72.93               0                            ;
 node_0460                  73.701955               0                            ;
 node_0463                      73.67               0                            ;
 node_0464                      73.67               0                            ;
 node_0465                  73.614591               0                            ;
 node_0466                      73.75               0                            ;
 node_0467                      73.75               0                            ;
 node_0468                     73.449               0                            ;
 node_0469                     73.449               0                            ;
 node_0470                  73.019996               0                            ;
 node_0471                      72.73               0                            ;
 node_0472                      72.73               0                            ;
 node_0473                   39.55137               0                            ;
 node_0474                       39.7               0                            ;
 node_0475                      39.54               0                            ;
 node_0476                      39.54               0                            ;
 node_0477                      40.01               0                            ;
 node_0478                      40.01               0                            ;
 node_0479                      40.16               0                            ;
 node_0480                      40.16         0.00882 DMA2_upper1                ;
 node_0481                      40.16               0                            ;
 node_0482                      40.16               0                            ;
 node_0485                       40.6         0.01764 DMA2_upper1                ;
 node_0486                  41.718121        0.220499 DMA2_upper1                ;
 node_0487                      74.39               0                            ;
 node_0488                  48.260925        0.138711 DMA1_upper1                ;
 node_0489                      41.48               0                            ;
 node_0490                      41.48         0.01323 DMA2_upper1                ;
 node_0491                  41.466347        0.511557 DMA2_upper1                ;
 node_0495                  41.721902         0.07056 DMA2_upper1                ;
 node_0498                      41.71               0                            ;
 node_0499                      41.71         0.01323 DMA2_upper1                ;
 node_0500                  41.683804        0.357209 DMA2_upper1                ;
 node_0503                  51.580317               0                            ;
 node_0504                      51.71               0                            ;
 node_0505                      51.71               0                            ;
 node_0506                      51.71               0                            ;
 node_0511                  44.202028         0.00441 DMA2_upper1                ;
 node_0512                      44.19               0                            ;
 node_0513                      44.19               0                            ;
 node_0521                  67.726963               0                            ;
 node_0522                      49.52               0                            ;
 node_0523                      49.52        0.019816 DMA1_upper1                ;
 node_0526                  49.754813        0.031705 DMA1_upper1                ;
 node_0550                  67.025484         0.01764                            ;
 node_0551                  65.747111         0.00441                            ;
 node_0555                  67.696213               0                            ;
 node_0556                      67.69               0                            ;
 node_0557                      67.69               0                            ;
 node_0558                  52.455394         0.00441 DMA2_upper1                ;
 node_0559                  52.530531        0.142674 DMA1_upper1                ;
 node_0562                  65.677205               0                            ;
 node_0563                      52.48        0.015853 DMA1_upper1                ;
 node_0564                      52.48               0                            ;
 node_0565                      65.68         0.00441 DMA2_upper1                ;
 node_0566                      65.68               0                            ;
 node_0567                      65.59               0                            ;
 node_0568                      65.59               0                            ;
 node_0570                      65.79         0.00441 DMA2_upper1                ;
 node_0571                  64.522544         0.02646                            ;
 node_0574                      64.51               0                            ;
 node_0575                      64.51               0                            ;
 node_0579                   64.51071         0.00441 DMA2_upper1                ;
 node_0585                      65.19               0                            ;
 node_0586                      65.19               0                            ;
 node_0587                  65.168005               0                            ;
 node_0590                   65.18642         0.03528                            ;
 node_0593                  40.855083               0                            ;
 node_0594                      40.85               0                            ;
 node_0595                      40.85         0.00882 DMA2_upper1                ;
 node_0598                      52.94         0.04851 DMA2_upper1                ;
 node_0599                      52.94               0                            ;
 node_0600                  52.945876               0                            ;
 node_0602                  52.998979               0                            ;
 node_0608                  53.021005               0                            ;
 node_0609                   52.63436        0.083226 DMA1_upper1                ;
 node_0610                      53.01               0                            ;
 node_0611                      53.01               0                            ;
 node_0612                      53.01               0                            ;
 node_0613                      53.01               0                            ;
 node_0614                  53.021442         0.00441 DMA2_upper1                ;
 node_0618                  53.047933         0.01323 DMA2_upper1                ;
 node_0619                      53.09               0                            ;
 node_0620                      53.09               0                            ;
 node_0621                      53.09               0                            ;
 node_0622                      53.09               0                            ;
 node_0623                  53.045748               0                            ;
 node_0624                      40.93         0.02205 DMA2_upper1                ;
 node_0625                      40.93               0                            ;
 node_0627                  50.117706        0.241753                            ;
 node_0628                      50.15               0                            ;
 node_0629                      50.15               0                            ;
 node_0632                  50.150117        0.003963 DMA1_upper1                ;
 node_0633                      50.19               0                            ;
 node_0634                      50.19        0.003963 DMA1_upper1                ;
 node_0635                  41.187002               0                            ;
 node_0636                      50.47        0.011889 DMA1_upper1                ;
 node_0637                      41.08               0                            ;
 node_0638                  41.248406               0                            ;
 node_0639                      41.22               0                            ;
 node_0640                  42.317869        0.013565 DMA2_lower2                ;
 node_0641                      55.64        0.023779 DMA1_upper1                ;
 node_0642                      55.64               0                            ;
 node_0643                  53.234518        0.103042 DMA1_upper1                ;
 node_0646                      42.36               0                            ;
 node_0647                      42.36               0                            ;
 node_0648                  42.515028         0.03969 DMA2_upper1                ;