; Filename: Networks/BWFLnet_modified.inp
; WNTR: 0.4.2
; Created: 2024-04-17 22:39:30
[TITLE]

[JUNCTIONS]
;ID                      Elevation       Demand Pattern                 
 node_0154                  28.121197   0.10787565332 DMA2_upper1                ;
 node_0159                  40.214785   0.16023916408 DMA2_upper1                ;
 node_0160                  15.917638   0.16454779758 DMA2_upper1                ;
 node_0354                      46.37    0.4542205778 DMA1_upper1                ;
 node_0468                     73.449 0.0033690058337 DMA2_upper1                ;
 node_0469                     73.449   0.93968740211 DMA2_upper1                ;
 node_0473                   39.55137   0.17563785756 DMA2_upper1                ;
 node_0600                  52.945876   0.21158675311 DMA2_upper1                ;
 node_0618                  53.047933  0.032834110116 DMA2_upper1                ;
 node_0640                  42.317869   0.26341064047 DMA2_lower2                ;
 node_0660                  53.731352  0.034369106395 DMA2_upper1                ;
 node_0666                   53.73146  0.008081474374 DMA2_upper1                ;
 node_0676                  53.803288 0.0064924705365 DMA2_upper1                ;
 node_0679                  53.843655  0.005856979814 DMA2_upper1                ;
 node_0683                     54.761 0.0023275294635 DMA2_upper1                ;
 node_0684                     54.761   0.47124794918 DMA1_upper1                ;
 node_0723                  52.987605    1.0540483777 DMA1_upper1                ;
 node_0766                  55.102091   0.12217432344 DMA2_upper1                ;
 node_0771                  42.995102   0.11647065934 DMA2_upper1                ;
 node_0785                      44.33   0.33392906634 DMA2_upper1                ;
 node_0791                  43.029238   0.53769596747 DMA2_upper1                ;
 node_0836                     58.371    1.3526808129 DMA1_upper1                ;
 node_0837                     58.371   0.33248877642 DMA1_upper1                ;
 node_0879                  44.922983   0.43894904136 DMA2_upper1                ;
 node_1037                  57.370318    1.4476166633 DMA1_upper1                ;
 node_1171                  60.042555   0.51072679249 DMA2_upper1                ;
 node_1194                     67.525   0.25844397477 DMA1_upper1                ;
 node_1202                     67.803   0.26021327431 DMA1_upper1                ;
 node_1217                  55.069599   0.51056795204 DMA2_upper1                ;
 node_1224                  67.787999    0.3052797649 DMA1_upper1                ;
 node_1232                  69.427428   0.41288286264 DMA1_upper1                ;
 node_1272                  68.174827   0.39105633708 DMA1_upper1                ;
 node_1340                  57.210353   0.54373635059 DMA2_upper1                ;
 node_1342                  59.385127     1.064974822 DMA2_upper1                ;
 node_1345                  72.893248   0.56534566554 DMA1_upper1                ;
 node_1360                  60.844791   0.26569615429 DMA2_upper1                ;
 node_1368                  72.319557   0.16701718341 DMA1_upper1                ;
 node_1382                  72.513228   0.70354890446 DMA1_upper1                ;
 node_1399                  61.948681   0.36917245771 DMA2_upper1                ;
 node_1420                      63.61  0.077509100506 DMA1_upper1                ;
 node_1421                      63.61   0.37438872212 DMA2_upper1                ;
 node_1480                  59.789844   0.65492471083 DMA2_upper1                ;
 node_1492                  65.776894  0.032938357582 DMA1_upper1                ;
 node_1565                   75.84252   0.47471186987 DMA1_upper1                ;
 node_1582                  70.260123   0.17462308554 DMA1_upper1                ;
 node_1583                  76.662915   0.10239179974 DMA1_upper1                ;
 node_1595                  76.974071   0.15982554465 DMA1_upper1                ;
 node_1596                  76.947451               0                            ;
 node_1609                  77.024403   0.14369916296 DMA1_upper1                ;
 node_1615                  76.965734   0.11425877398 DMA1_upper1                ;
 node_1617                  77.034767   0.70887617708 DMA1_upper1                ;
 node_1622                  53.711937   0.54933140551 DMA2_upper1                ;
 node_1629                  57.049073   0.23388274956 DMA2_upper1                ;
 node_1661                  72.589952   0.24926920306 DMA1_upper1                ;
 node_1697                  81.443804   0.23856959942 DMA1_upper1                ;
 node_1718                  81.379693   0.36765237384 DMA1_upper1                ;
 node_1719                  81.336579  0.064558499197 DMA1_upper1                ;
 node_1738                     65.867   0.29990625389 DMA2_upper1                ;
 node_1781                     68.696    1.2937180575 DMA1_upper1                ;
 node_1801                  90.341125   0.21749211073 DMA1_upper1                ;
 node_1802                  90.332089 0.0061867458972                            ;
 node_1832                  90.087118   0.17979555016 DMA1_upper1                ;
 node_1848                  87.601587   0.87944177098 DMA1_upper1                ;
 node_1876                     81.201   0.46443493082 DMA1_upper1                ;
 node_1900                      95.92               0                            ;
 node_1901                      95.92               0                            ;
 node_1925                     82.016    1.2119092995 DMA2_upper1                ;
 node_1938                     15.691   0.10141963963 DMA2_upper1                ;
 node_1961                     41.206    1.3850997895 DMA2_upper1                ;
 node_1971                     37.157   0.50744600895 DMA2_upper1                ;
 node_1983                      34.11   0.36238182886 DMA1_upper1                ;
 node_2012                     60.029   0.65757129767 DMA2_upper1                ;
 node_2046                     41.391     1.153885542 DMA2_upper1                ;
 node_2113                     59.562     1.170232936 DMA1_upper1                ;
 node_2188                      66.44   0.42171212871 DMA1_upper1                ;
 node_2197                     44.616   0.47030540541 DMA2_upper1                ;
 node_2210                      57.47    0.3281697901 DMA1_upper1                ;
 node_2243                     58.877   0.45353633851 DMA2_upper1                ;
 node_2265                      65.47    0.2234902426 DMA1_upper1                ;
 node_2285                      54.86    0.1900462196 DMA2_upper1                ;
 node_2354                     46.984   0.24640631707 DMA2_upper1                ;
 node_2428                     76.602               0                            ;
 node_2440                     53.061  0.074917212073 DMA2_upper1                ;
 node_2441                     61.884   0.37822655538 DMA2_upper1                ;
 node_2485                     71.595    0.4329035273 DMA1_upper1                ;
 node_2535                     90.956  0.067751708167 DMA1_upper1                ;

[RESERVOIRS]
;ID                                   Head                  Pattern
 node_2547                     126.24                 RES_PATT   ;
 node_2548                     130.58                 RES_PATT   ;

[TANKS]
;ID                              Elevation           Init Level            Min Level            Max Level             Diameter           Min Volume Volume Curve         Overflow            

[PIPES]
;ID                   Node1                Node2                              Length             Diameter            Roughness           Minor Loss               Status
 link_0354            node_2548            node_2012                       0.51             250      123.603314               0                 Open   ;
 link_0789            node_0791            node_0771                      15.65             178       91.506789               0                 Open   ;
 link_1668            node_2428            node_1583                       2.62      101.599998      110.285592               0                 Open   ;
 link_1914            node_1802            node_1801                       1.15             203      119.082185               0                 Open   ;
 link_2026            node_2547            node_1901                       1.18             158      278.820632               0                 Open   ;
 new-pipe-97          node_0159            node_1961               22.602314468    141.45844577             100               0                 Open   ;
 new-pipe-291         node_0600            node_0618               22.602314468    100.36565375             100               0                 Open   ;
 new-pipe-324         node_0618            node_0666               22.602314468    72.303656166             100               0                 Open   ;
 new-pipe-346         node_0676            node_0683               22.602314468    92.146337226             100               0                 Open   ;
 new-pipe-587         node_0879            node_2197               22.602314468    113.19029605             100               0                 Open   ;
 new-pipe-604         node_1217            node_1171               22.602314468    78.813812254             100               0                 Open   ;
 new-pipe-689         node_1272            node_1368               22.602314468    58.760177244             100               0                 Open   ;
 new-pipe-829         node_1596            node_1615               22.602314468    187.22347666             100               0                 Open   ;
 new-pipe-847         node_1629            node_1622               22.602314468    84.108075485             100               0                 Open   ;
 new-pipe-857         node_1582            node_1661               22.602314468    42.846513691             100               0                 Open   ;
 new-pipe-877         node_1697            node_1565               22.602314468    31.915595599             100               0                 Open   ;
 new-pipe-882         node_1719            node_1615               22.602314468    95.773463654             100               0                 Open   ;
 new-pipe-967         node_1802            node_1832               22.602314468    278.67902389             100               0                 Open   ;
 new-pipe-995         node_1876            node_2535               22.602314468    36.406643657             100               0                 Open   ;
 new-pipe-1055        node_0473            node_2046               22.602314468    78.535160582             100               0                 Open   ;
 new-pipe-1060        node_0600            node_1938               22.602314468    52.012659965             100               0                 Open   ;
 new-pipe-1082        node_0679            node_0766               22.602314468    72.300804614             100               0                 Open   ;
 new-pipe-1112        node_2243            node_0766               22.602314468    78.612072221             100               0                 Open   ;
 new-pipe-1126        node_2354            node_0791               22.602314468    54.702591769             100               0                 Open   ;
 new-pipe-1140        node_1194            node_1272               22.602314468    52.510334089             100               0                 Open   ;
 new-pipe-1145        node_1382            node_1232               22.602314468    49.147187158             100               0                 Open   ;
 new-pipe-1154        node_1340            node_1360               22.602314468    52.530473225             100               0                 Open   ;
 new-pipe-1171        node_1492            node_1420               22.602314468    40.327147252             100               0                 Open   ;
 new-pipe-1188        node_1582            node_1492               22.602314468    38.813808246             100               0                 Open   ;
 new-pipe-1190        node_1565            node_1609               22.602314468    36.809588296             100               0                 Open   ;
 new-pipe-1195        node_2441            node_1629               22.602314468     68.63895852             100               0                 Open   ;
 new-pipe-1200        node_1622            node_2440               22.602314468     51.60005285             100               0                 Open   ;
 new-pipe-1202        node_1718            node_1609               22.602314468    47.931630806             100               0                 Open   ;
 new-pipe-1207        node_1738            node_1399               22.602314468    43.172247703             100               0                 Open   ;
 new-pipe-1212        node_1832            node_1900               22.602314468     244.7091196             100               0                 Open   ;
 new-pipe-1222        node_1938            node_0159               22.602314468    52.888290503             100               0                 Open   ;
 new-pipe-1223        node_1938            node_0160               22.602314468    91.777161273             100               0                 Open   ;
 new-pipe-1224        node_0159            node_0160               22.602314468    75.058446073             100               0                 Open   ;
 new-pipe-1226        node_0160            node_0791               22.602314468    23.643774475             100               0                 Open   ;
 new-pipe-1227        node_1961            node_0600               22.602314468    64.785917147             100               0                 Open   ;
 new-pipe-1228        node_1961            node_1971               22.602314468    67.773152311             100               0                 Open   ;
 new-pipe-1229        node_0600            node_1971               22.602314468     27.26042875             100               0                 Open   ;
 new-pipe-1230        node_0154            node_0160               22.602314468    117.70256468             100               0                 Open   ;
 new-pipe-1231        node_0154            node_0791               22.602314468    45.060525291             100               0                 Open   ;
 new-pipe-1232        node_0154            node_0468               22.602314468    94.634967899             100               0                 Open   ;
 new-pipe-1234        node_0154            node_0473               22.602314468    99.631385233             100               0                 Open   ;
 new-pipe-1235        node_0473            node_0468               22.602314468    17.648127275             100               0                 Open   ;
 new-pipe-1249        node_0469            node_2012               22.602314468     109.0581361             100               0                 Open   ;
 new-pipe-1250        node_2012            node_1925               22.602314468    44.148382907             100               0                 Open   ;
 new-pipe-1251        node_1925            node_0469               22.602314468    48.108329144             100               0                 Open   ;
 new-pipe-1252        node_1983            node_0354               22.602314468    25.154277212             100               0                 Open   ;
 new-pipe-1253        node_1983            node_0723               22.602314468    31.849263815             100               0                 Open   ;
 new-pipe-1254        node_0354            node_0723               22.602314468    38.261180902             100               0                 Open   ;
 new-pipe-1255        node_0640            node_0473               22.602314468    63.229837259             100               0                 Open   ;
 new-pipe-1256        node_0640            node_0771               22.602314468    54.707339121             100               0                 Open   ;
 new-pipe-1257        node_0473            node_0771               22.602314468    92.408165835             100               0                 Open   ;
 new-pipe-1258        node_0660            node_0618               22.602314468    84.500036782             100               0                 Open   ;
 new-pipe-1259        node_0660            node_0159               22.602314468    71.204096847             100               0                 Open   ;
 new-pipe-1260        node_0618            node_0159               22.602314468    50.702821086             100               0                 Open   ;
 new-pipe-1261        node_0660            node_0666               22.602314468    124.98757069             100               0                 Open   ;
 new-pipe-1262        node_0660            node_0766               22.602314468    36.377009468             100               0                 Open   ;
 new-pipe-1263        node_0666            node_0766               22.602314468    50.231913639             100               0                 Open   ;
 new-pipe-1264        node_0666            node_0676               22.602314468    62.382941524             100               0                 Open   ;
 new-pipe-1265        node_0666            node_0679               22.602314468    80.609651109             100               0                 Open   ;
 new-pipe-1266        node_0676            node_0679               22.602314468    120.04027997             100               0                 Open   ;
 new-pipe-1267        node_0660            node_0676               22.602314468    185.51494595             100               0                 Open   ;
 new-pipe-1268        node_0660            node_0679               22.602314468    64.429868684             100               0                 Open   ;
 new-pipe-1269        node_0640            node_0785               22.602314468    58.584102759             100               0                 Open   ;
 new-pipe-1272        node_0684            node_1037               22.602314468    77.410360542             100               0                 Open   ;
 new-pipe-1274        node_0785            node_0879               22.602314468    68.619026889             100               0                 Open   ;
 new-pipe-1275        node_0785            node_0771               22.602314468    56.908608348             100               0                 Open   ;
 new-pipe-1276        node_0879            node_0771               22.602314468    54.576123522             100               0                 Open   ;
 new-pipe-1278        node_0836            node_0723               22.602314468    46.086721631             100               0                 Open   ;
 new-pipe-1279        node_0723            node_1037               22.602314468    39.575584184             100               0                 Open   ;
 new-pipe-1280        node_1037            node_0836               22.602314468    121.15964374             100               0                 Open   ;
 new-pipe-1281        node_0879            node_0640               22.602314468    49.403902504             100               0                 Open   ;
 new-pipe-1284        node_2210            node_1037               22.602314468    43.545433897             100               0                 Open   ;
 new-pipe-1285        node_2210            node_0684               22.602314468    43.377094155             100               0                 Open   ;
 new-pipe-1286        node_2188            node_1224               22.602314468    73.139439295             100               0                 Open   ;
 new-pipe-1287        node_2188            node_1345               22.602314468    35.969644245             100               0                 Open   ;
 new-pipe-1288        node_1224            node_1345               22.602314468    51.728455287             100               0                 Open   ;
 new-pipe-1290        node_1202            node_0837               22.602314468    89.618385457             100               0                 Open   ;
 new-pipe-1291        node_1232            node_0837               22.602314468    39.967804308             100               0                 Open   ;
 new-pipe-1292        node_1232            node_1202               22.602314468    32.448631002             100               0                 Open   ;
 new-pipe-1293        node_1171            node_2243               22.602314468    114.32340119             100               0                 Open   ;
 new-pipe-1294        node_1171            node_1342               22.602314468    42.553063372             100               0                 Open   ;
 new-pipe-1295        node_2243            node_1342               22.602314468    38.912576638             100               0                 Open   ;
 new-pipe-1296        node_2113            node_1232               22.602314468    34.145487278             100               0                 Open   ;
 new-pipe-1297        node_2113            node_1272               22.602314468    24.579362145             100               0                 Open   ;
 new-pipe-1298        node_1232            node_1272               22.602314468    40.109730401             100               0                 Open   ;
 new-pipe-1299        node_2285            node_1217               22.602314468    53.025242445             100               0                 Open   ;
 new-pipe-1300        node_2285            node_1340               22.602314468    38.628011047             100               0                 Open   ;
 new-pipe-1301        node_1217            node_1340               22.602314468    48.265161173             100               0                 Open   ;
 new-pipe-1302        node_2265            node_1224               22.602314468    57.352847378             100               0                 Open   ;
 new-pipe-1303        node_2265            node_1345               22.602314468    16.556935834             100               0                 Open   ;
 new-pipe-1304        node_1202            node_1368               22.602314468    96.337895407             100               0                 Open   ;
 new-pipe-1305        node_1202            node_1492               22.602314468    51.909411466             100               0                 Open   ;
 new-pipe-1306        node_1368            node_1492               22.602314468    24.016480916             100               0                 Open   ;
 new-pipe-1307        node_1171            node_1360               22.602314468    86.666912675             100               0                 Open   ;
 new-pipe-1308        node_1217            node_1360               22.602314468    67.769556464             100               0                 Open   ;
 new-pipe-1311        node_1382            node_1565               22.602314468    30.474180153             100               0                 Open   ;
 new-pipe-1312        node_1382            node_1345               22.602314468    28.336008927             100               0                 Open   ;
 new-pipe-1313        node_1565            node_1345               22.602314468    13.900175602             100               0                 Open   ;
 new-pipe-1314        node_1342            node_1399               22.602314468    82.765645565             100               0                 Open   ;
 new-pipe-1315        node_1342            node_1480               22.602314468    128.60543441             100               0                 Open   ;
 new-pipe-1316        node_1399            node_1480               22.602314468    20.241032109             100               0                 Open   ;
 new-pipe-1318        node_1421            node_1342               22.602314468    29.345964854             100               0                 Open   ;
 new-pipe-1319        node_1421            node_1399               22.602314468    63.334637484             100               0                 Open   ;
 new-pipe-1320        node_1480            node_1360               22.602314468    107.21408436             100               0                 Open   ;
 new-pipe-1321        node_1480            node_1629               22.602314468    73.496232489             100               0                 Open   ;
 new-pipe-1322        node_1360            node_1629               22.602314468    29.173782284             100               0                 Open   ;
 new-pipe-1323        node_1595            node_1382               22.602314468    43.489501796             100               0                 Open   ;
 new-pipe-1324        node_1595            node_1582               22.602314468       22.227868             100               0                 Open   ;
 new-pipe-1325        node_1382            node_1582               22.602314468    26.390871117             100               0                 Open   ;
 new-pipe-1326        node_1340            node_1622               22.602314468    40.349117898             100               0                 Open   ;
 new-pipe-1327        node_1340            node_1480               22.602314468    33.416122285             100               0                 Open   ;
 new-pipe-1328        node_1622            node_1480               22.602314468    33.422345151             100               0                 Open   ;
 new-pipe-1329        node_1583            node_1368               22.602314468    86.776570582             100               0                 Open   ;
 new-pipe-1330        node_1583            node_1661               22.602314468    43.156149216             100               0                 Open   ;
 new-pipe-1331        node_1368            node_1661               22.602314468    25.659973503             100               0                 Open   ;
 new-pipe-1332        node_1224            node_1697               22.602314468    23.850808485             100               0                 Open   ;
 new-pipe-1333        node_1224            node_1615               22.602314468    82.924674379             100               0                 Open   ;
 new-pipe-1334        node_1697            node_1615               22.602314468    31.369703991             100               0                 Open   ;
 new-pipe-1338        node_1596            node_1583               22.602314468    162.16155561             100               0                 Open   ;
 new-pipe-1339        node_1802            node_1583               22.602314468     36.89321129             100               0                 Open   ;
 new-pipe-1340        node_1802            node_1596               22.602314468    82.652994616             100               0                 Open   ;
 new-pipe-1341        node_1596            node_1595               22.602314468      65.0363159             100               0                 Open   ;
 new-pipe-1342        node_1596            node_1617               22.602314468    120.81415338             100               0                 Open   ;
 new-pipe-1343        node_1595            node_1617               22.602314468    61.207275787             100               0                 Open   ;
 new-pipe-1344        node_1595            node_1609               22.602314468    94.552606482             100               0                 Open   ;
 new-pipe-1345        node_1609            node_1617               22.602314468    63.562745961             100               0                 Open   ;
 new-pipe-1346        node_1661            node_1617               22.602314468    34.438858561             100               0                 Open   ;
 new-pipe-1347        node_1661            node_2485               22.602314468    29.683305102             100               0                 Open   ;
 new-pipe-1348        node_1617            node_2485               22.602314468    48.996770843             100               0                 Open   ;
 new-pipe-1349        node_1697            node_1718               22.602314468    41.508523134             100               0                 Open   ;
 new-pipe-1350        node_1697            node_1719               22.602314468    8.9197349504             100               0                 Open   ;
 new-pipe-1351        node_1718            node_1719               22.602314468    56.536484641             100               0                 Open   ;
 new-pipe-1353        node_1781            node_1848               22.602314468    41.672098994             100               0                 Open   ;
 new-pipe-1354        node_1801            node_1719               22.602314468    87.011459163             100               0                 Open   ;
 new-pipe-1355        node_1801            node_1718               22.602314468    43.495863471             100               0                 Open   ;
 new-pipe-1356        node_1801            node_1832               22.602314468    107.82339264             100               0                 Open   ;
 new-pipe-1357        node_1801            node_1848               22.602314468    15.203575645             100               0                 Open   ;
 new-pipe-1358        node_1832            node_1848               22.602314468    58.874521336             100               0                 Open   ;
 new-pipe-1360        node_1876            node_1781               22.602314468    35.635344929             100               0                 Open   ;